GRDSET                                                       456      
$ Femap with NX Nastran Property 1 : ROD Property
PROD           1     101      .5    999.      0.      0.
$ Femap with NX Nastran Property 2 : ROD Property
PROD           2     101      .5    999.      0.      0.
$ Femap with NX Nastran Property 3 : ROD Property
PROD           3     101      .5    999.      0.      0.
$ Femap with NX Nastran Property 4 : ROD Property
PROD           4     101      .5    999.      0.      0.
$ Femap with NX Nastran Property 5 : ROD Property
PROD           5     101      .5    999.      0.      0.
$ Femap with NX Nastran Property 6 : ROD Property
PROD           6     101      .5    999.      0.      0.
$ Femap with NX Nastran Property 7 : ROD Property
PROD           7     101      .5    999.      0.      0.
$ Femap with NX Nastran Property 8 : ROD Property
PROD           8     101      .5    999.      0.      0.
$ Femap with NX Nastran Property 9 : ROD Property
PROD           9     101      .5    999.      0.      0.
$ Femap with NX Nastran Property 10 : ROD Property
PROD          10     101      .5    999.      0.      0.
$ Femap with NX Nastran Property 11 : ROD Property
PROD          11     101      .5    999.      0.      0.
$ Femap with NX Nastran Property 12 : ROD Property
PROD          12     101      .5    999.      0.      0.
$ Femap with NX Nastran Property 13 : ROD Property
PROD          13     101      .5    999.      0.      0.
$ Femap with NX Nastran Property 14 : ROD Property
PROD          14     101      .5    999.      0.      0.
$ Femap with NX Nastran Property 15 : ROD Property
PROD          15     101      .5    999.      0.      0.
$ Femap with NX Nastran Property 16 : ROD Property
PROD          16     101      .5    999.      0.      0.
$ Femap with NX Nastran Material 101 : ISOTROPIC Material
MAT1         101    1.+73759398.     .33  2.59-4      0.      0.        
GRID*                 21               0              0.              0.
*                   480.               0
GRID*                 22               0            120.              0.
*                   480.               0
GRID*                 23               0            120.            120.
*                   480.               0
GRID*                 24               0              0.            120.
*                   480.               0
GRID*                 25               0              0.              0.
*                   420.               0
GRID*                 26               0            120.              0.
*                   420.               0
GRID*                 27               0            120.            120.
*                   420.               0
GRID*                 28               0              0.            120.
*                   420.               0
GRID*                 29               0              0.              0.
*                   360.               0
GRID*                 30               0            120.              0.
*                   360.               0
GRID*                 31               0            120.            120.
*                   360.               0
GRID*                 32               0              0.            120.
*                   360.               0
GRID*                 33               0              0.              0.
*                   300.               0
GRID*                 34               0            120.              0.
*                   300.               0
GRID*                 35               0            120.            120.
*                   300.               0
GRID*                 36               0              0.            120.
*                   300.               0
GRID*                 37               0              0.              0.
*                   240.               0
GRID*                 38               0            120.              0.
*                   240.               0
GRID*                 39               0            120.            120.
*                   240.               0
GRID*                 40               0              0.            120.
*                   240.               0
CROD          73       1      21      25
CROD          74       1      22      26
CROD          75       1      23      27
CROD          76       1      24      28
CROD          77       2      25      22
CROD          78       2      21      26
CROD          79       2      26      23
CROD          80       2      22      27
CROD          81       2      27      24
CROD          82       2      23      28
CROD          83       2      28      21
CROD          84       2      24      25
CROD          85       3      21      22
CROD          86       3      22      23
CROD          87       3      23      24
CROD          88       3      24      21
CROD          89       4      21      23
CROD          90       4      22      24
CROD          91       5      25      29
CROD          92       5      26      30
$ ... 52 like lines cut
