GRDSET                                                       456      
$ Femap with NX Nastran Property 1 : ROD Property
PROD           1     101      .5    999.      0.      0.
$ Femap with NX Nastran Property 2 : ROD Property
PROD           2     101      .5    999.      0.      0.
$ Femap with NX Nastran Property 3 : ROD Property
PROD           3     101      .5    999.      0.      0.
$ Femap with NX Nastran Property 4 : ROD Property
PROD           4     101      .5    999.      0.      0.
$ Femap with NX Nastran Property 5 : ROD Property
PROD           5     101      .5    999.      0.      0.
$ Femap with NX Nastran Property 6 : ROD Property
PROD           6     101      .5    999.      0.      0.
$ Femap with NX Nastran Property 7 : ROD Property
PROD           7     101      .5    999.      0.      0.
$ Femap with NX Nastran Property 8 : ROD Property
PROD           8     101      .5    999.      0.      0.
$ Femap with NX Nastran Property 9 : ROD Property
PROD           9     101      .5    999.      0.      0.
$ Femap with NX Nastran Property 10 : ROD Property
PROD          10     101      .5    999.      0.      0.
$ Femap with NX Nastran Property 11 : ROD Property
PROD          11     101      .5    999.      0.      0.
$ Femap with NX Nastran Property 12 : ROD Property
PROD          12     101      .5    999.      0.      0.
$ Femap with NX Nastran Property 13 : ROD Property
PROD          13     101      .5    999.      0.      0.
$ Femap with NX Nastran Property 14 : ROD Property
PROD          14     101      .5    999.      0.      0.
$ Femap with NX Nastran Property 15 : ROD Property
PROD          15     101      .5    999.      0.      0.
$ Femap with NX Nastran Property 16 : ROD Property
PROD          16     101      .5    999.      0.      0.
$ Femap with NX Nastran Material 101 : ISOTROPIC Material
MAT1         101    1.+73759398.     .33  2.59-4      0.      0.        
GRID*                 41               0              0.              0.
*                   720.               0
GRID*                 42               0            120.              0.
*                   720.               0
GRID*                 43               0            120.            120.
*                   720.               0
GRID*                 44               0              0.            120.
*                   720.               0
GRID*                 45               0              0.              0.
*                   660.               0
GRID*                 46               0            120.              0.
*                   660.               0
GRID*                 47               0            120.            120.
*                   660.               0
GRID*                 48               0              0.            120.
*                   660.               0
GRID*                 49               0              0.              0.
*                   600.               0
GRID*                 50               0            120.              0.
*                   600.               0
GRID*                 51               0            120.            120.
*                   600.               0
GRID*                 52               0              0.            120.
*                   600.               0
GRID*                 53               0              0.              0.
*                   540.               0
GRID*                 54               0            120.              0.
*                   540.               0
GRID*                 55               0            120.            120.
*                   540.               0
GRID*                 56               0              0.            120.
*                   540.               0
GRID*                 57               0              0.              0.
*                   480.               0
GRID*                 58               0            120.              0.
*                   480.               0
GRID*                 59               0            120.            120.
*                   480.               0
GRID*                 60               0              0.            120.
*                   480.               0
CROD         145       1      41      45
CROD         146       1      42      46
CROD         147       1      43      47
CROD         148       1      44      48
CROD         149       2      45      42
CROD         150       2      41      46
CROD         151       2      46      43
CROD         152       2      42      47
CROD         153       2      47      44
CROD         154       2      43      48
CROD         155       2      48      41
CROD         156       2      44      45
CROD         157       3      41      42
CROD         158       3      42      43
CROD         159       3      43      44
CROD         160       3      44      41
CROD         161       4      41      43
CROD         162       4      42      44
CROD         163       5      45      49
CROD         164       5      46      50
$ ... 52 like lines cut
