$ **********************************************************
$   E X E C U T I V E    C O N T R O L
$ **********************************************************
SOL 103
CEND
$ **********************************************************
$   C A S E    C O N T R O L
$ **********************************************************
ECHO = SORT
DISPLACEMENT = ALL
STRESS = ALL
STRAIN = ALL
ESE = ALL
FORCE = ALL
SPCFORCES = ALL
EXTSEOUT(EXTID=10,STIFFNESS,MASS,DMIGPCH,DMIGSFIX=EXTID)
METHOD = 1
$ **********************************************************
$   B U L K    D A T A
$ **********************************************************
$
$ ---------------------------------------------
$   ANALYSIS MODEL
$ ---------------------------------------------
$
BEGIN BULK
MDLPRM,HDF5,0
PARAM    AUTOSPC NO
PARAM    GRDPNT  0
PARAM    POST    -1
$
$ Eigenvalue method
EIGRL   1                       10                              MASS
$
$ Include the model
$ Aluminum
MAT1,501,1440.E6,,.33,5.37078819    
$                                                                                                                                   
$                                                                       
CBAR,1,101,1,2,0.,1.,0.,,                           
$1------2-------3-------4-------5-------6-------7-------8-------9-------
$GRID   ID      CP      X1      X2      X3      CD      PS      SEID    
GRID,1,0,0.0,0.0,0.0,0,,,                                      
GRID,2,0,1.0,0.0,0.0,0,,,                                    
$
FORCE,1,2,,1.0E8,0.25,0.5,-1.0
$ MOMENT,1,6,,1.0E8,2.0,-3.0,0.75
$
$
PBAR,101,501,15000.,2500.,250.,25000.,0.0
,.1,.1,-0.1,.1,-0.1,-0.1,.1,-0.1
,0.0,0.0
$
$
ENDDATA