$ **********************************************************
$   E X E C U T I V E    C O N T R O L
$ **********************************************************
SOL 103
CEND
$ **********************************************************
$   C A S E    C O N T R O L
$ **********************************************************
DISPLACEMENT = ALL
SPC = 1
METHOD = 1
LOAD =  1
$ **********************************************************
$   B U L K    D A T A
$ **********************************************************
BEGIN BULK
EIGRL   1                       10                              MASS
SPC            1       1  123456      0.
PBEAM          1       1     0.1    0.01    0.01     0.0   0.001      0.
MAT1           1  2.9E+7  1.1E+7    0.327.357E-4   6.E-6     70. 
GRDSET                                                      1345
GRID           1       0      0.      0.      0.       0        
GRID           2       0      1.      0.      0.       0        
GRID           3       0      2.      0.      0.       0        
GRID           4       0      3.      0.      0.       0        
GRID           5       0      4.      0.      0.       0        
GRID           6       0      5.      0.      0.       0        
GRID           7       0      6.      0.      0.       0        
GRID           8       0      7.      0.      0.       0        
GRID           9       0      8.      0.      0.       0        
GRID          10       0      9.      0.      0.       0        
GRID          11       0     10.      0.      0.       0        
CBEAM          1       1       1       2      0.      1.      0.
CBEAM          2       1       2       3      0.      1.      0.
CBEAM          3       1       3       4      0.      1.      0.
CBEAM          4       1       4       5      0.      1.      0.
CBEAM          5       1       5       6      0.      1.      0.
CBEAM          6       1       6       7      0.      1.      0.
CBEAM          7       1       7       8      0.      1.      0.
CBEAM          8       1       8       9      0.      1.      0.
CBEAM          9       1       9      10      0.      1.      0.
CBEAM         10       1      10      11      0.      1.      0.
FORCE          1      11       0      1.      0.    100.      0.
ENDDATA