INIT MASTER(S)
NASTRAN SYSTEM(442)=-1,SYSTEM(319)=1
ID optimizeWing,FEMAP
SOL DESOPT
GEOMCHECK, NONE
CEND
  ANALYSIS = STATICS
  DESOBJ(MIN) = 4
  DESSUB = 10
  TITLE = OptimizeWing
  ECHO = PUNCH(BSTBULK)
  DISPLACEMENT(PLOT) = ALL
  SPCFORCE(PLOT) = ALL
  OLOAD(PLOT) = ALL
  STRESS(PLOT) = ALL
  SPC = 1
  LOAD = 1
BEGIN BULK
$ ***************************************************************************
$   Written by : Femap
$   Version    : 2020.2.0
$   Translator : Simcenter Nastran
$   From Model : S:\aricciar\20210822_CoFE\sweptWingExampleFemap12Format\optimizeWing.modfem
$   Date       : Mon Oct 25 10:45:26 2021
$   Output To  : S:\aricciar\20210822_CoFE\sweptWingExampleFemap12Format\
$ ***************************************************************************
$
PARAM,PRGPST,NO
PARAM,POST,-1
PARAM,OGEOM,NO
PARAM,AUTOSPC,NO
PARAM,K6ROT,100.
PARAM,GRDPNT,0
PARAM,WTMASS,.00259
PARAM,NASPRT,0
DRESP1         4OBJECTIV  WEIGHT
DOPTPRM   DESMAX     100
DESVAR         2  FEMAP2      .5      .2     10.
DVPREL1        2  PSHELL     102       T      .2     10.      0.        +       
+              2      1.
DESVAR         4  FEMAP4      .5      .2     10.
DVPREL1        4  PSHELL     103       T      .2     10.      0.        +       
+              4      1.
DESVAR         5  FEMAP5      .5      .2     10.
DVPREL1        5  PSHELL     104       T      .2     10.      0.        +       
+              5      1.
DESVAR         6  FEMAP6      .5      .2     10.
DVPREL1        6  PSHELL     105       T      .2     10.      0.        +       
+              6      1.
DESVAR         7  FEMAP7      .5      .2     10.
DVPREL1        7  PSHELL     106       T      .2     10.      0.        +       
+              7      1.
DESVAR         8  FEMAP8      .5      .2     10.
DVPREL1        8  PSHELL     107       T      .2     10.      0.        +       
+              8      1.
DESVAR         9  FEMAP9      .5      .2     10.
DVPREL1        9  PSHELL     108       T      .2     10.      0.        +       
+              9      1.
DESVAR        10 FEMAP10      .5      .2     10.
DVPREL1       10  PSHELL     109       T      .2     10.      0.        +       
+             10      1.
DESVAR       201FEMAP201      .5      .2     10.
DVPREL1      201  PSHELL     201       T      .2     10.      0.        +       
+            201      1.
DESVAR       202FEMAP202      .5      .2     10.
DVPREL1      202  PSHELL     202       T      .2     10.      0.        +       
+            202      1.
DESVAR       203FEMAP203      .5      .2     10.
DVPREL1      203  PSHELL     203       T      .2     10.      0.        +       
+            203      1.
DESVAR       204FEMAP204      .5      .2     10.
DVPREL1      204  PSHELL     204       T      .2     10.      0.        +       
+            204      1.
DESVAR       205FEMAP205      .5      .2     10.
DVPREL1      205  PSHELL     205       T      .2     10.      0.        +       
+            205      1.
DESVAR       206FEMAP206      .5      .2     10.
DVPREL1      206  PSHELL     206       T      .2     10.      0.        +       
+            206      1.
DESVAR       207FEMAP207      .5      .2     10.
DVPREL1      207  PSHELL     207       T      .2     10.      0.        +       
+            207      1.
DESVAR       208FEMAP208      .5      .2     10.
DVPREL1      208  PSHELL     208       T      .2     10.      0.        +       
+            208      1.
DESVAR       209FEMAP209      .5      .2     10.
DVPREL1      209  PSHELL     209       T      .2     10.      0.        +       
+            209      1.
DESVAR       301FEMAP301      .5      .2     10.
DVPREL1      301  PSHELL     301       T      .2     10.      0.        +       
+            301      1.
DESVAR       302FEMAP302      .5      .2     10.
DVPREL1      302  PSHELL     302       T      .2     10.      0.        +       
+            302      1.
DESVAR       303FEMAP303      .5      .2     10.
DVPREL1      303  PSHELL     303       T      .2     10.      0.        +       
+            303      1.
$ ... 18 like lines cut
DCONADD       10       7       8
DCONSTR        7       1-999999.  30000.
DCONSTR        8       2-999999.  30000.
DRESP1         1     DO1  STRESS  PSHELL               9             101+       
+            102     103     104     105     106     107     108     109+       
+            110     201     202     203     204     205     206     207+       
+            208     209     301     302     303     304     305     306+       
+            307     308     309
DRESP1         2     DO2  STRESS  PSHELL              17             101+       
+            102     103     104     105     106     107     108     109+       
+            110     201     202     203     204     205     206     207+       
+            208     209     301     302     303     304     305     306+       
+            307     308     309
CORD2C         1       0      0.      0.      0.      0.      0.      1.+FEMAPC1
+FEMAPC1      1.      0.      1.        
CORD2S         2       0      0.      0.      0.      0.      0.      1.+FEMAPC2
+FEMAPC2      1.      0.      1.        
$ Femap Constraint Set 1 : NASTRAN SPC 1
SPC1           1  123456       1
SPC1           1  123456      11
SPC1           1  123456      12
SPC1           1  123456      13
SPC1           1  123456      14
SPC1           1  123456      15
SPC1           1  123456      16
SPC1           1  123456      17
SPC1           1  123456      18
SPC1           1  123456      19
SPC1           1  123456      20
SPC1           1  123456      21
SPC1           1  123456      22
SPC1           1  123456      23
SPC1           1  123456      24
SPC1           1  123456      25
SPC1           1  123456      26
SPC1           1  123456      27
SPC1           1  123456      28
SPC1           1  123456      29
$ ... 50 like lines cut
$ Femap Load Set 1 : NASTRAN 1
FORCE          1     100       0      1.      0.      0.21741.63
FORCE          1     200       0      1.      0.      0.21470.12
FORCE          1     300       0      1.      0.      0.20916.49
FORCE          1     400       0      1.      0.      0.20057.26
FORCE          1     500       0      1.      0.      0.18850.42
FORCE          1     600       0      1.      0.      0.17222.36
FORCE          1     700       0      1.      0.      0.15034.82
FORCE          1     800       0      1.      0.      0.11975.32
FORCE          1     900       0      1.      0.      0.6731.579
MOMENT         1     100       0      1.564698.2594985.9      0.
MOMENT         1     200       0      1.556448.4529944.1      0.
MOMENT         1     300       0      1.540792.3460215.6      0.
MOMENT         1     400       0      1.517055.2387670.3      0.
MOMENT         1     500       0      1.484044.5314141.8      0.
MOMENT         1     600       0      1.439663.5 241520.      0.
MOMENT         1     700       0      1.379907.1171875.4      0.
MOMENT         1     800       0      1.295381.7107698.9      0.
MOMENT         1     900       0      1.140705.853656.24      0.
$ Femap Property 101 : Rib
PSHELL       101       1      .5       1      1.       1 .833333      0.
$ Femap Property 102 : Rib
PSHELL       102       1      .5       1      1.       1 .833333      0.
$ Femap Property 103 : Rib
PSHELL       103       1      .5       1      1.       1 .833333      0.
$ Femap Property 104 : Rib
PSHELL       104       1      .5       1      1.       1 .833333      0.
$ Femap Property 105 : Rib
PSHELL       105       1      .5       1      1.       1 .833333      0.
$ Femap Property 106 : Rib
PSHELL       106       1      .5       1      1.       1 .833333      0.
$ Femap Property 107 : Rib
PSHELL       107       1      .5       1      1.       1 .833333      0.
$ Femap Property 108 : Rib
PSHELL       108       1      .5       1      1.       1 .833333      0.
$ Femap Property 109 : Rib
PSHELL       109       1      .5       1      1.       1 .833333      0.
$ Femap Property 110 : Rib
PSHELL       110       1      .5       1      1.       1 .833333      0.
$ Femap Property 201 : Skin
PSHELL       201       1      .5       1      1.       1 .833333      0.
$ Femap Property 202 : Skin
PSHELL       202       1      .5       1      1.       1 .833333      0.
$ Femap Property 203 : Skin
PSHELL       203       1      .5       1      1.       1 .833333      0.
$ Femap Property 204 : Skin
PSHELL       204       1      .5       1      1.       1 .833333      0.
$ Femap Property 205 : Skin
PSHELL       205       1      .5       1      1.       1 .833333      0.
$ Femap Property 206 : Skin
PSHELL       206       1      .5       1      1.       1 .833333      0.
$ Femap Property 207 : Skin
PSHELL       207       1      .5       1      1.       1 .833333      0.
$ Femap Property 208 : Skin
PSHELL       208       1      .5       1      1.       1 .833333      0.
$ Femap Property 209 : Skin
PSHELL       209       1      .5       1      1.       1 .833333      0.
$ Femap Property 301 : Spar
PSHELL       301       1      .5       1      1.       1 .833333      0.
$ Femap Property 302 : Spar
PSHELL       302       1      .5       1      1.       1 .833333      0.
$ Femap Property 303 : Spar
PSHELL       303       1      .5       1      1.       1 .833333      0.
$ Femap Property 304 : Spar
PSHELL       304       1      .5       1      1.       1 .833333      0.
$ Femap Property 305 : Spar
PSHELL       305       1      .5       1      1.       1 .833333      0.
$ Femap Property 306 : Spar
PSHELL       306       1      .5       1      1.       1 .833333      0.
$ Femap Property 307 : Spar
PSHELL       307       1      .5       1      1.       1 .833333      0.
$ Femap Property 308 : Spar
PSHELL       308       1      .5       1      1.       1 .833333      0.
$ Femap Property 309 : Spar
PSHELL       309       1      .5       1      1.       1 .833333      0.
$ Femap Material 1 : 7075-T651 Al Plate: t = 0.25 to 0.5 inches
MAT1           1  1.03+73872180.     .33.1000239  1.23-5     70.        +       
+         66000.  67000.  43000.
GRID           1       0     78.      0.      0.       0
GRID          11       0     39.      0.     7.2       0
GRID          12       0  43.875      0.     7.2       0
GRID          13       0   48.75      0.     7.2       0
GRID          14       0  53.625      0.     7.2       0
GRID          15       0    58.5      0.     7.2       0
GRID          16       0  63.375      0.     7.2       0
GRID          17       0   68.25      0.     7.2       0
GRID          18       0  73.125      0.     7.2       0
GRID          19       0     78.      0.     7.2       0
GRID          20       0  82.875      0.     7.2       0
GRID          21       0   87.75      0.     7.2       0
GRID          22       0  92.625      0.     7.2       0
GRID          23       0    97.5      0.     7.2       0
GRID          24       0 102.375      0.     7.2       0
GRID          25       0  107.25      0.     7.2       0
GRID          26       0 112.125      0.     7.2       0
GRID          27       0    117.      0.     7.2       0
GRID          28       0    117.      0.     2.4       0
GRID          29       0    117.      0.    -2.4       0
$ ... 4434 like lines cut
CQUAD4        10     101      11      12      49      48                
CQUAD4        11     101      12      13      50      49                
CQUAD4        12     101      13      14      51      50                
CQUAD4        13     101      14      15      52      51                
CQUAD4        14     101      15      16      53      52                
CQUAD4        15     101      16      17      54      53                
CQUAD4        16     101      17      18      55      54                
CQUAD4        17     101      18      19      56      55                
CQUAD4        18     101      19      20      57      56                
CQUAD4        19     101      20      21      58      57                
CQUAD4        20     101      21      22      59      58                
CQUAD4        21     101      22      23      60      59                
CQUAD4        22     101      23      24      61      60                
CQUAD4        23     101      24      25      62      61                
CQUAD4        24     101      25      26      63      62                
CQUAD4        25     101      26      27      28      63                
CQUAD4        26     101      48      49      64      47                
CQUAD4        27     101      49      50      65      64                
CQUAD4        28     101      50      51      66      65                
CQUAD4        29     101      51      52      67      66                
$ ... 4564 like lines cut
RBE3        4604             200  123456      1.     123     354     355+       
+            356     357     358     359     360     361     362     363+       
+            364     365     366     367     368     369     370     560+       
+            584     609     611     613     615     617     619     621+       
+            623     625     627     629     631     633     635     637+       
+            148     149     150     151     152     153     154     155+       
+            156     157     158     159     160     161     162     163+       
+            164     561     585     610     612     614     616     618+       
+            620     622     624     626     628     630     632     634+       
+            636     638
RBE3        4605             300  123456      1.     123     639     640+       
+            660     661     662     663     664     665     666     667+       
+            668     669     670     671     672     673     674     675+       
+            676     677     679     681     683     685     687     689+       
+            691     693     695     697     699     702     704     706+       
+            641     642     643     644     645     646     647     648+       
+            649     650     651     652     653     654     655     656+       
+            657     658     659     678     680     682     684     686+       
+            688     690     692     694     696     698     701     703+       
+            705     707
RBE3        4606             400  123456      1.     123     708     709+       
+            729     730     731     732     733     734     735     736+       
+            737     738     739     740     741     742     743     744+       
+            745     746     748     750     752     754     756     758+       
+            760     762     764     766     768     770     772     774+       
+            710     711     712     713     714     715     716     717+       
+            718     719     720     721     722     723     724     725+       
+            726     727     728     747     749     751     753     755+       
+            757     759     761     763     765     767     769     771+       
+            773     775
RBE3        4607             500  123456      1.     123     776     777+       
+            797     798     799     801     802     803     804     805+       
+            806     807     808     809     810     811     812     813+       
+            814     815     817     819     821     823     825     827+       
+            829     831     833     835     837     839     841     843+       
+            778     779     780     781     782     783     784     785+       
+            786     787     788     789     790     791     792     793+       
+            794     795     796     816     818     820     822     824+       
+            826     828     830     832     834     836     838     840+       
+            842     844
RBE3        4608             600  123456      1.     123     845     846+       
+            866     867     868     869     870     871     872     873+       
+            874     875     876     877     878     879     880     881+       
+            882     883     885     887     889     891     893     895+       
+            897     899     902     904     906     908     910     912+       
+            847     848     849     850     851     852     853     854+       
+            855     856     857     858     859     860     861     862+       
+            863     864     865     884     886     888     890     892+       
+            894     896     898     901     903     905     907     909+       
+            911     913
RBE3        4609             700  123456      1.     123     914     915+       
+            935     936     937     938     939     940     941     942+       
+            943     944     945     946     947     948     949     950+       
+            951     952     954     956     958     960     962     964+       
+            966     968     970     972     974     976     978     980+       
+            916     917     918     919     920     921     922     923+       
+            924     925     926     927     928     929     930     931+       
+            932     933     934     953     955     957     959     961+       
+            963     965     967     969     971     973     975     977+       
+            979     981
RBE3        4610             800  123456      1.     123     982     983+       
+           1004    1005    1006    1007    1008    1009    1010    1011+       
+           1012    1013    1014    1015    1016    1017    1018    1019+       
+           1020    1021    1023    1025    1027    1029    1031    1033+       
+           1035    1037    1039    1041    1043    1045    1047    1049+       
+            984     985     986     987     988     989     990     991+       
+            992     993     994     995     996     997     998     999+       
+           1001    1002    1003    1022    1024    1026    1028    1030+       
+           1032    1034    1036    1038    1040    1042    1044    1046+       
+           1048    1050
RBE3        4611             900  123456      1.     123    1051    1052+       
+           1072    1073    1074    1075    1076    1077    1078    1079+       
+           1080    1081    1082    1083    1084    1085    1086    1087+       
+           1088    1089    1091    1093    1095    1097    1099    1101+       
+           1103    1105    1107    1109    1111    1113    1115    1117+       
+           1053    1054    1055    1056    1057    1058    1059    1060+       
+           1061    1062    1063    1064    1065    1066    1067    1068+       
+           1069    1070    1071    1090    1092    1094    1096    1098+       
+           1100    1102    1104    1106    1108    1110    1112    1114+       
+           1116    1118
RBE3        4612            1000  123456      1.     123      79      80+       
+            101     102     103     104     105     106     107     108+       
+            109     110     111     112     113     114     115     116+       
+            117     118     120     122     124     126     128     130+       
+            132     134     136     138     140     142     144     146+       
+             81      82      83      84      85      86      87      88+       
+             89      90      91      92      93      94      95      96+       
+             97      98      99     119     121     123     125     127+       
+            129     131     133     135     137     139     141     143+       
+            145     147
ENDDATA 2c22c1be
