PARAM,GRDPNT,0
PBAR           1       1     0.1    0.01    0.01   0.001      0.
MAT1           1  2.9E+7  1.1E+7    0.327.357E-4   6.E-6     70. 
GRDSET                                                      1345      
GRID         106       0      5.      0.      0.       0        
GRID           7       0      6.      0.      0.       0        
GRID           8       0      7.      0.      0.       0        
GRID         949       0      8.      0.      0.       0        
GRID          10       0      9.      0.      0.       0        
GRID          11       0     10.      0.      0.       0            
CBAR           6       1     106       7      0.      1.      0.
CBAR           7       1       7       8      0.      1.      0.
CBAR           8       1       8     949      0.      1.      0.
CBAR           9       1     949      10      0.      1.      0.
CBAR          10       1      10      11      0.      1.      0.