INIT MASTER(S)
NASTRAN SYSTEM(442)=-1,SYSTEM(319)=1
ID square,FEMAP
SOL SESTATIC
CEND
  TITLE = Static Analysis
  ECHO = NONE
  DISPLACEMENT(PLOT) = ALL
  SPC = 1
  LOAD = 1
BEGIN BULK
$ ***************************************************************************
$   Written by : Femap
$   Version    : 2021.2.0
$   Translator : Simcenter Nastran
$   From Model : S:\aricciar\20210822_CoFE\square_plate\square_plate_8tri_clamped.modfem
$   Date       : Sun Aug 22 12:16:02 2021
$   Output To  : S:\aricciar\20210822_CoFE\square_plate\
$ ***************************************************************************
$
PARAM,PRGPST,NO
PARAM,POST,-1
PARAM,OGEOM,NO
PARAM,AUTOSPC,YES
PARAM,K6ROT,100.
PARAM,GRDPNT,0
CORD2C         1       0      0.      0.      0.      0.      0.      1.+FEMAPC1
+FEMAPC1      1.      0.      1.        
CORD2S         2       0      0.      0.      0.      0.      0.      1.+FEMAPC2
+FEMAPC2      1.      0.      1.        
$ Femap Load Set 1 : uniform pressure
PLOAD4         1       1     -3.
PLOAD4         1       2     -3.
PLOAD4         1       3     -3.
PLOAD4         1       4     -3.
PLOAD4         1       5     -3.
PLOAD4         1       6     -3.
PLOAD4         1       7     -3.
PLOAD4         1       8     -3.
PLOAD4         1       9     -3.
PLOAD4         1      10     -3.
PLOAD4         1      11     -3.
PLOAD4         1      12     -3.
PLOAD4         1      13     -3.
PLOAD4         1      14     -3.
PLOAD4         1      15     -3.
PLOAD4         1      16     -3.
PLOAD4         1      17     -3.
PLOAD4         1      18     -3.
PLOAD4         1      19     -3.
PLOAD4         1      20     -3.
$ ... 492 like lines cut
$ Femap Constraint Set 1 : Untitled
SPC1           1  123456       1
SPC1           1  123456       2
SPC1           1  123456       3
SPC1           1  123456       4
SPC1           1  123456       5
SPC1           1  123456       6
SPC1           1  123456       7
SPC1           1  123456       8
SPC1           1  123456       9
SPC1           1  123456      10
SPC1           1  123456      11
SPC1           1  123456      12
SPC1           1  123456      13
SPC1           1  123456      14
SPC1           1  123456      15
SPC1           1  123456      16
SPC1           1  123456      17
SPC1           1  123456      18
SPC1           1  123456      19
SPC1           1  123456      20
$ ... 44 like lines cut
$ Femap Property 1 : PLATE Property
PSHELL         1       1      .2       1               1              0.
$ Femap Material 1 : ISOTROPIC Material
MAT1           1    1.+7              .3      0.      0.      0.        
GRID           1       0     -1.     -1.      0.       0
GRID           2       0     -1.   -.875      0.       0
GRID           3       0     -1.    -.75      0.       0
GRID           4       0     -1.   -.625      0.       0
GRID           5       0     -1.     -.5      0.       0
GRID           6       0     -1.   -.375      0.       0
GRID           7       0     -1.    -.25      0.       0
GRID           8       0     -1.   -.125      0.       0
GRID           9       0     -1.      0.      0.       0
GRID          10       0     -1.    .125      0.       0
GRID          11       0     -1.     .25      0.       0
GRID          12       0     -1.    .375      0.       0
GRID          13       0     -1.      .5      0.       0
GRID          14       0     -1.    .625      0.       0
GRID          15       0     -1.     .75      0.       0
GRID          16       0     -1.    .875      0.       0
GRID          17       0     -1.      1.      0.       0
GRID          18       0   -.875      1.      0.       0
GRID          19       0    -.75      1.      0.       0
GRID          20       0   -.625      1.      0.       0
$ ... 269 like lines cut
CTRIA3         1       1       1       2      64                        
CTRIA3         2       1       2      65      64                        
CTRIA3         3       1       2       3      66                        
CTRIA3         4       1       2      66      65                        
CTRIA3         5       1       3       4      66                        
CTRIA3         6       1       4      67      66                        
CTRIA3         7       1       4       5      68                        
CTRIA3         8       1       4      68      67                        
CTRIA3         9       1       5       6      68                        
CTRIA3        10       1       6      69      68                        
CTRIA3        11       1       6       7      70                        
CTRIA3        12       1       6      70      69                        
CTRIA3        13       1       7       8      70                        
CTRIA3        14       1       8      71      70                        
CTRIA3        15       1       8       9      72                        
CTRIA3        16       1       8      72      71                        
CTRIA3        17       1       9      10      72                        
CTRIA3        18       1      10      73      72                        
CTRIA3        19       1      10      11      74                        
CTRIA3        20       1      10      74      73                        
$ ... 492 like lines cut
ENDDATA c23fb419
