INIT MASTER(S)
NASTRAN SYSTEM(442)=-1,SYSTEM(319)=1
ID square,FEMAP
SOL SESTATIC
CEND
  TITLE = Static Analysis
  ECHO = NONE
  DISPLACEMENT(PLOT) = ALL
  SPC = 1
  LOAD = 1
BEGIN BULK
$ ***************************************************************************
$   Written by : Femap
$   Version    : 2021.2.0
$   Translator : Simcenter Nastran
$   From Model : S:\aricciar\20210822_CoFE\square_plate\square_plate_irregular_clamped.modfem
$   Date       : Sun Aug 22 12:23:41 2021
$   Output To  : S:\aricciar\20210822_CoFE\square_plate\
$ ***************************************************************************
$
PARAM,PRGPST,NO
PARAM,POST,-1
PARAM,OGEOM,NO
PARAM,AUTOSPC,YES
PARAM,K6ROT,100.
PARAM,GRDPNT,0
CORD2C         1       0      0.      0.      0.      0.      0.      1.+FEMAPC1
+FEMAPC1      1.      0.      1.        
CORD2S         2       0      0.      0.      0.      0.      0.      1.+FEMAPC2
+FEMAPC2      1.      0.      1.        
$ Femap Load Set 1 : uniform pressure
PLOAD4         1     191     -3.
PLOAD4         1     192     -3.
PLOAD4         1     193     -3.
PLOAD4         1     194     -3.
PLOAD4         1     195     -3.
PLOAD4         1     196     -3.
PLOAD4         1     197     -3.
PLOAD4         1     198     -3.
PLOAD4         1     199     -3.
PLOAD4         1     200     -3.
PLOAD4         1     201     -3.
PLOAD4         1     202     -3.
PLOAD4         1     203     -3.
PLOAD4         1     204     -3.
PLOAD4         1     205     -3.
PLOAD4         1     206     -3.
PLOAD4         1     207     -3.
PLOAD4         1     208     -3.
PLOAD4         1     209     -3.
PLOAD4         1     210     -3.
$ ... 660 like lines cut
$ Femap Constraint Set 1 : Untitled
SPC1           1  123456       9
SPC1           1  123456      51
SPC1           1  123456     229
SPC1           1  123456     230
SPC1           1  123456     231
SPC1           1  123456     232
SPC1           1  123456     233
SPC1           1  123456     234
SPC1           1  123456     235
SPC1           1  123456     236
SPC1           1  123456     237
SPC1           1  123456     238
SPC1           1  123456     239
SPC1           1  123456     240
SPC1           1  123456     241
SPC1           1  123456     242
SPC1           1  123456     243
SPC1           1  123456     244
SPC1           1  123456     245
SPC1           1  123456     246
$ ... 72 like lines cut
$ Femap Property 1 : PLATE Property
PSHELL         1       1      .2       1               1              0.
$ Femap Material 1 : ISOTROPIC Material
MAT1           1    1.+7              .3      0.      0.      0.        
GRID           1       0      0.      0.      0.       0
GRID           2       0      0.   -.125      0.       0
GRID           3       0      0.    -.25      0.       0
GRID           4       0      0.   -.375      0.       0
GRID           5       0      0.     -.5      0.       0
GRID           6       0      0.   -.625      0.       0
GRID           7       0      0.    -.75      0.       0
GRID           8       0      0.   -.875      0.       0
GRID           9       0      0.     -1.      0.       0
GRID          51       0      0.      1.      0.       0
GRID          52       0      0..9444444      0.       0
GRID          53       0      0..8900966      0.       0
GRID          54       0      0..8369565      0.       0
GRID          55       0      0..7850242      0.       0
GRID          56       0      0..7342995      0.       0
GRID          57       0      0..6847826      0.       0
GRID          58       0      0..6364734      0.       0
GRID          59       0      0. .589372      0.       0
GRID          60       0      0..5434783      0.       0
GRID          61       0      0..4987923      0.       0
$ ... 702 like lines cut
CQUAD4       191       1     327     325     326     328                
CQUAD4       192       1     328     323     324     327                
CQUAD4       193       1     321     322     323     328                
CQUAD4       194       1     328     326     320     321                
CQUAD4       195       1     318     319     325     327                
CQUAD4       196       1     327     324     317     318                
CQUAD4       197       1     240     241     320     326                
CQUAD4       198       1     326     325     239     240                
CQUAD4       199       1     325     319     238     239                
CQUAD4       200       1     323     322     306     307                
CQUAD4       201       1     307     308     324     323                
CQUAD4       202       1     308     309     317     324                
CQUAD4       203       1     315     316     322     321                
CQUAD4       204       1     321     320     314     315                
CQUAD4       205       1     320     241     242     314                
CQUAD4       206       1     316     305     306     322                
CQUAD4       207       1     318     317     311     312                
CQUAD4       208       1     312     313     319     318                
CQUAD4       209       1     313     237     238     319                
CQUAD4       210       1     317     309     310     311                
$ ... 5 like lines cut
CTRIA3       216       1     312      54      53                        
CQUAD4       217       1     312     311      55      54                
CQUAD4       218       1      52      51     237     313                
CQUAD4       219       1     311     310      56      55                
CQUAD4       220       1     344     345     346     347                
CQUAD4       221       1     344     347     337     343                
CQUAD4       222       1     346     336     337     347                
CQUAD4       223       1     342     335     336     346                
CQUAD4       224       1     346     345     341     342                
CQUAD4       225       1     337     338     339     343                
CQUAD4       226       1     348     345     344     349                
CQUAD4       227       1     348     349     290     291                
CQUAD4       228       1     344     343     290     349                
CQUAD4       229       1     343     339     289     290                
CQUAD4       230       1     340     341     345     348                
CQUAD4       231       1     348     291     292     340                
CQUAD4       232       1     340     292     293     329                
CQUAD4       233       1     329     330     341     340                
CQUAD4       234       1     330     331     342     341                
CQUAD4       235       1     331     332     335     342                
CQUAD4       236       1     334     288     289     339                
$ ... 40 like lines cut
CTRIA3       277       1     352     372     371                        
CQUAD4       278       1     352     351     370     372                
CQUAD4       279       1     368     244     245     370                
CQUAD4       280       1     370     351     350     368                
CQUAD4       281       1     294     295     353     369                
CQUAD4       282       1     369     248     249     294                
CQUAD4       283       1     299     243     244     368                
CQUAD4       284       1     368     350     300     299                
CQUAD4       285       1     253     254     298     297                
CTRIA3       286       1     297     296     253                        
CQUAD4       287       1     296     295     252     253                
CQUAD4       288       1     254     255     283     298                
CQUAD4       289       1     294     249     250     373                
CQUAD4       290       1     294     373     252     295                
CQUAD4       291       1     250     251     252     373                
CQUAD4       292       1      67      66     405     408                
CQUAD4       293       1     408     407      68      67                
CQUAD4       294       1     408     405     406     409                
CQUAD4       295       1     408     409     399     407                
CQUAD4       296       1     406     398     399     409                
CQUAD4       297       1     402      69      68     407                
CQUAD4       298       1     407     399     400     402                
CQUAD4       299       1     405      66      65     403                
CQUAD4       300       1     403     404     406     405                
CQUAD4       301       1     404     397     398     406                
CQUAD4       302       1     395     396     397     404                
CQUAD4       303       1     404     403     394     395                
CQUAD4       304       1     403      65      64     394                
CQUAD4       305       1     392     393     411     412                
CQUAD4       306       1     392     412     401     391                
$ ... 55 like lines cut
CTRIA3       362       1     441     443     442                        
CQUAD4       363       1     441     425     424     443                
CQUAD4       364       1     440     426     425     441                
CQUAD4       365       1     441     288     287     440                
CQUAD4       366       1     439     427     426     440                
CQUAD4       367       1     440     287     286     439                
CQUAD4       368       1     381     382     427     439                
CQUAD4       369       1     439     286     285     381                
CQUAD4       370       1     379     380     384     383                
CQUAD4       371       1     383     382     378     379                
CQUAD4       372       1     382     381     377     378                
CQUAD4       373       1     380     275     276     384                
CQUAD4       374       1     381     285     284     377                
CQUAD4       375       1     378     377     374     375                
CTRIA3       376       1     375     379     378                        
CQUAD4       377       1     375     376     380     379                
CQUAD4       378       1     377     284     283     374                
CQUAD4       379       1     376     274     275     380                
CQUAD4       380       1     375     374     256     257                
CQUAD4       381       1     257     258     376     375                
CQUAD4       382       1     258     259     274     376                
CQUAD4       383       1     374     283     255     256                
CQUAD4       384       1     447     279     278     448                
CQUAD4       385       1     447     448     270     271                
CQUAD4       386       1     278     277     270     448                
CQUAD4       387       1     446     280     279     447                
CQUAD4       388       1     447     271     272     446                
CQUAD4       389       1     277     276     269     270                
CQUAD4       390       1     276     275     268     269                
CQUAD4       391       1     446     272     273     449                
CQUAD4       392       1     449     281     280     446                
CQUAD4       393       1     282     281     449     450                
CQUAD4       394       1     282     450       2       1                
CQUAD4       395       1     449     273       2     450                
CQUAD4       396       1     275     274     267     268                
$ ... 114 like lines cut
CTRIA3       511       1     662     661     660                        
CQUAD4       512       1     661     614     613     660                
CQUAD4       513       1     612     611     652     667                
CQUAD4       514       1     667     660     613     612                
CQUAD4       515       1     655     656     660     667                
CQUAD4       516       1     667     652     653     655                
CQUAD4       517       1     672     658     657     674                
CQUAD4       518       1     674     673     671     672                
CQUAD4       519       1     674     657     656     675                
CQUAD4       520       1     674     675     670     673                
CQUAD4       521       1     656     655     670     675                
CQUAD4       522       1     608     609     671     673                
CQUAD4       523       1     673     670     607     608                
CQUAD4       524       1     669     659     658     672                
CQUAD4       525       1     672     671     668     669                
CQUAD4       526       1     671     609     610     668                
CQUAD4       527       1     654     606     607     670                
CQUAD4       528       1     670     655     653     654                
CQUAD4       529       1     668     610      58      59                
CQUAD4       530       1      59      60     669     668                
CQUAD4       531       1      60      61     659     669                
$ ... 8 like lines cut
CTRIA3       540       1     682     681     680                        
CQUAD4       541       1     681     609     608     680                
CQUAD4       542       1     677     586     587     680                
CQUAD4       543       1     680     608     607     677                
CQUAD4       544       1     678     589      55      56                
CQUAD4       545       1      56      57     679     678                
CQUAD4       546       1      57      58     610     679                
CQUAD4       547       1     676     585     586     677                
CQUAD4       548       1     677     607     606     676                
CQUAD4       549       1     605     584     585     676                
CQUAD4       550       1     676     606     604     605                
CQUAD4       551       1     704     705     708     711                
CQUAD4       552       1     704     711     710     703                
CQUAD4       553       1     708     709     710     711                
CQUAD4       554       1     709     706     707     710                
CQUAD4       555       1     687     688     703     710                
CQUAD4       556       1     710     707     686     687                
CQUAD4       557       1     708     705     699     700                
CQUAD4       558       1     700     701     709     708                
CQUAD4       559       1     701     702     706     709                
CQUAD4       560       1     698     685     686     707                
$ ... 35 like lines cut
CTRIA3       596       1     592     692     691                        
CQUAD4       597       1     592     593     693     692                
CQUAD4       598       1     690     689     590     591                
CQUAD4       599       1     593     594     683     693                
CQUAD4       600       1     689     565     566     590                
CQUAD4       601       1     731     687     686     733                
CQUAD4       602       1     733     732     730     731                
CQUAD4       603       1     733     686     685     734                
CQUAD4       604       1     733     734     729     732                
CQUAD4       605       1     685     684     729     734                
CQUAD4       606       1     581     582     730     732                
CQUAD4       607       1     732     729     580     581                
CQUAD4       608       1     730     582     583     727                
CQUAD4       609       1     727     728     731     730                
CQUAD4       610       1     728     688     687     731                
CQUAD4       611       1     726     579     580     729                
CQUAD4       612       1     729     684     683     726                
CQUAD4       613       1     727     583     584     605                
CQUAD4       614       1     605     604     728     727                
CQUAD4       615       1     604     603     688     728                
CQUAD4       616       1     595     578     579     726                
$ ... 43 like lines cut
CTRIA3       660       1     544     576     575                        
CQUAD4       661       1     790     783     784     791                
CQUAD4       662       1     791     788     789     790                
CQUAD4       663       1     786     787     788     791                
CQUAD4       664       1     791     784     785     786                
CQUAD4       665       1     781     782     783     790                
CQUAD4       666       1     790     789     780     781                
CQUAD4       667       1     788     787     776     777                
CQUAD4       668       1     777     778     789     788                
CQUAD4       669       1     778     779     780     789                
CQUAD4       670       1     786     785     521     522                
CQUAD4       671       1     522     523     787     786                
CQUAD4       672       1     523     524     776     787                
CQUAD4       673       1     774     775     785     784                
CQUAD4       674       1     784     783     773     774                
CQUAD4       675       1     783     782     772     773                
CQUAD4       676       1     775     520     521     785                
CQUAD4       677       1     780     779     763     764                
CQUAD4       678       1     764     765     781     780                
CQUAD4       679       1     765     766     782     781                
CQUAD4       680       1     766     767     772     782                
$ ... 37 like lines cut
CTRIA3       718       1     811     810     809                        
CQUAD4       719       1     810     759     758     809                
CQUAD4       720       1     804     564     563     809                
CQUAD4       721       1     809     758     757     804                
CQUAD4       722       1     807     561     560     805                
CQUAD4       723       1     805     806     808     807                
CQUAD4       724       1     806     761     760     808                
CQUAD4       725       1     805     560     559     747                
CQUAD4       726       1     747     748     806     805                
CQUAD4       727       1     748     749     761     806                
CQUAD4       728       1     803     565     564     804                
CQUAD4       729       1     804     757     756     803                
CQUAD4       730       1     802     566     565     803                
CQUAD4       731       1     803     756     755     802                
CQUAD4       732       1     527     528     566     802                
CQUAD4       733       1     802     755     526     527                
CQUAD4       734       1     816     826     824     815                
CQUAD4       735       1     826     816     817     825                
CQUAD4       736       1     817     818     823     825                
CQUAD4       737       1     821     822     824     826                
CQUAD4       738       1     826     825     820     821                
$ ... 132 like lines cut
ENDDATA 42e4cfa6
