CQUAD4,1,101,1,2,6,5,0.000000,0.000000
CQUAD4,2,101,2,3,7,6,0.000000,0.000000
CQUAD4,3,101,3,4,8,7,0.000000,0.000000
CQUAD4,4,101,5,6,10,9,0.000000,0.000000
CQUAD4,5,101,6,7,11,10,0.000000,0.000000
CQUAD4,6,101,7,8,12,11,0.000000,0.000000
CQUAD4,7,101,9,10,17,16,0.000000,0.000000
CQUAD4,8,101,10,11,18,17,0.000000,0.000000
CQUAD4,9,101,11,12,19,18,0.000000,0.000000
CQUAD4,10,101,13,14,21,20,0.000000,0.000000
CQUAD4,11,101,14,15,22,21,0.000000,0.000000
CQUAD4,12,101,15,16,23,22,0.000000,0.000000
CQUAD4,13,101,20,21,28,27,0.000000,0.000000
CQUAD4,14,101,21,22,29,28,0.000000,0.000000
CQUAD4,15,101,22,23,30,29,0.000000,0.000000
CQUAD4,16,101,27,28,35,34,0.000000,0.000000
CQUAD4,17,101,28,29,36,35,0.000000,0.000000
CQUAD4,18,101,29,30,37,36,0.000000,0.000000
CQUAD4,19,101,16,17,24,23,0.000000,0.000000
CQUAD4,20,101,17,18,25,24,0.000000,0.000000
$ ... 7 like lines cut
FORCE,1,34,,1250.000000,0.000000,-1.000000,0.000000
FORCE,1,35,,2500.000000,0.000000,-1.000000,0.000000
FORCE,1,36,,2500.000000,0.000000,-1.000000,0.000000
FORCE,1,37,,2500.000000,0.000000,-1.000000,0.000000
FORCE,1,38,,2500.000000,0.000000,-1.000000,0.000000
FORCE,1,39,,2500.000000,0.000000,-1.000000,0.000000
FORCE,1,40,,1250.000000,0.000000,-1.000000,0.000000
GRDSET,,,,,,,3456
GRID,1,0,3.819612,0.000000,0.000000,0
GRID,2,0,4.320648,0.000000,0.000000,0
GRID,3,0,5.109913,0.000000,0.000000,0
GRID,4,0,6.000000,0.000000,0.000000,0
GRID,5,0,3.355209,0.904678,0.000000,0
GRID,6,0,4.100877,0.841185,0.000000,0
GRID,7,0,4.826450,0.752215,0.000000,0
GRID,8,0,5.591780,0.707000,0.000000,0
GRID,9,0,2.826774,1.692826,0.000000,0
GRID,10,0,3.650395,1.573146,0.000000,0
GRID,11,0,4.433462,1.487500,0.000000,0
GRID,12,0,5.183570,1.414000,0.000000,0
GRID,13,0,0.000000,4.199327,0.000000,0
GRID,14,0,0.920027,3.853480,0.000000,0
GRID,15,0,1.684188,3.280061,0.000000,0
GRID,16,0,2.296421,2.500081,0.000000,0
GRID,17,0,3.143846,2.265604,0.000000,0
GRID,18,0,3.967758,2.180938,0.000000,0
GRID,19,0,4.775350,2.121000,0.000000,0
GRID,20,0,0.000000,4.408806,0.000000,0
$ ... 20 like lines cut
MAT1,102,20000000.000000,7692307.692308,0.300000,1.000000
PSHELL,101,102,0.440000,-999,1.000000,-999,0.833333,0.000000
,,,
SPC1,25,12,1
SPC1,25,12,2
SPC1,25,12,3
SPC1,25,12,4
SPC1,25,1,13
SPC1,25,1,20
SPC1,25,1,27
SPC1,25,1,34
