$
$ Based on:
$ Design Sensitivity and Optimization in MSC/NASTRAN
$ SEMINAR NOTES
$ February 1999
$ See: ftp://ftp.mscsoftware.com.tw/download/training/nas107/nas107.pdf
$
$ SPC=25
$ LOAD=1
$
$
GRID, 1,, 3.00000, 0.00000,.00
GRID, 2,, 4.00000, 0.00000,.00
GRID, 3,, 5.00000, 0.00000,.00
GRID, 4,, 6.00000, 0.00000,.00
GRID, 5,, 2.89464, 0.78478,.00
GRID, 6,, 3.79369, 0.75885,.00
GRID, 7,, 4.69274, 0.73293,.00
GRID, 8,, 5.59178, 0.70700,.00
GRID, 9,, 2.60164, 1.49178,.00
GRID, 10,, 3.46229, 1.46585,.00
GRID, 11,, 4.32293, 1.43993,.00
GRID, 12,, 5.18357, 1.41400,.00
GRID, 13,, 0.00000, 3.00000,.00
GRID, 14,, 0.78478, 2.89464,.00
GRID, 15,, 1.49178, 2.60164,.00
GRID, 16,, 2.12100, 2.12100,.00
GRID, 17,, 3.00578, 2.12100,.00
GRID, 18,, 3.89057, 2.12100,.00
GRID, 19,, 4.77535, 2.12100,.00
GRID, 20,, 0.00000, 3.73200,.00
$ ... 20 like lines cut
CQUAD4, 1,101, 1, 2, 6, 5
CQUAD4, 2,101, 2, 3, 7, 6
CQUAD4, 3,101, 3, 4, 8, 7
CQUAD4, 4,101, 5, 6, 10, 9
CQUAD4, 5,101, 6, 7, 11, 10
CQUAD4, 6,101, 7, 8, 12, 11
CQUAD4, 7,101, 9, 10, 17, 16
CQUAD4, 8,101, 10, 11, 18, 17
CQUAD4, 9,101, 11, 12, 19, 18
CQUAD4, 10,101, 13, 14, 21, 20
CQUAD4, 11,101, 14, 15, 22, 21
CQUAD4, 12,101, 15, 16, 23, 22
CQUAD4, 13,101, 20, 21, 28, 27
CQUAD4, 14,101, 21, 22, 29, 28
CQUAD4, 15,101, 22, 23, 30, 29
CQUAD4, 16,101, 27, 28, 35, 34
CQUAD4, 17,101, 28, 29, 36, 35
CQUAD4, 18,101, 29, 30, 37, 36
CQUAD4, 19,101, 16, 17, 24, 23
CQUAD4, 20,101, 17, 18, 25, 24
$ ... 7 like lines cut
FORCE,1,34,0,1250.,0.,-1.,0.
FORCE,1,35,0,2500.,0.,-1.,0.
FORCE,1,36,0,2500.,0.,-1.,0.
FORCE,1,37,0,2500.,0.,-1.,0.
FORCE,1,38,0,2500.,0.,-1.,0.
FORCE,1,39,0,2500.00,0.,-1.,0.
FORCE,1,40,0,1250.,0.,-1.,0.
PSHELL,101,102,.44
MAT1,102,2.+7,,.3,1.0
$1------2-------3-------4-------5-------6-------7-------8-------9-------
$GRDSET                                                 PS
GRDSET                                                  3456
SPC1,25,12,1
SPC1,25,12,2
SPC1,25,12,3
SPC1,25,12,4
SPC1,25,1,13
SPC1,25,1,20
SPC1,25,1,27
SPC1,25,1,34