NASTRAN SYSTEM(442)=-1,SYSTEM(319)=1
ID threeElementTypes2,FEMAP
SOL SESTATIC
CEND
  TITLE = dynamicReductionStatic
  ECHO = NONE
  DISPLACEMENT(PLOT) = ALL
  SPCFORCE(PLOT) = ALL
  FORCE(PLOT) = ALL
  STRESS(PLOT) = ALL
  ESE(PLOT) = ALL
  STRAIN(PLOT,FIBER) = ALL
  EKE(PLOT) = ALL
  METHOD = 1
  SPC = 1
SUBCASE 1
  SUBTITLE = X
  LOAD = 1
SUBCASE 2
  SUBTITLE = Y
  LOAD = 2
SUBCASE 3
  SUBTITLE = Z
  LOAD = 3
BEGIN BULK
MDLPRM,HDF5,0
PARAM,USETPRT,12
PARAM,USETSEL,-1
$ ***************************************************************************
$   Written by : Femap
$   Version    : 2020.1.0
$   Translator : Simcenter Nastran
$   From Model : S:\aricciar\20200609_CoFE\newSuperelementTestCase\threeElementTypes2.modfem
$   Date       : Sat Jun 20 15:23:57 2020
$   Output To  : S:\aricciar\20200609_CoFE\newSuperelementTestCase\
$ ***************************************************************************
$
PARAM,PRGPST,YES
PARAM,POST,-1
PARAM,OGEOM,NO
PARAM,AUTOSPC,YES
PARAM,GRDPNT,0
EIGRL          1                      10       0                    MASS
CORD2C         1       0      0.      0.      0.      0.      0.      1.+FEMAPC1
+FEMAPC1      1.      0.      1.        
CORD2S         2       0      0.      0.      0.      0.      0.      1.+FEMAPC2
+FEMAPC2      1.      0.      1.        
$ Femap Load Set 1 : X
FORCE          1       1       0      1.      1.      0.      0.
FORCE          1      16       0      1.      1.      0.      0.
$ Femap Load Set 2 : Y
FORCE          2       1       0      1.      0.      1.      0.
FORCE          2      16       0      1.      0.      1.      0.
$ Femap Load Set 3 : Z
FORCE          3       1       0      1.      0.      0.      1.
FORCE          3      16       0      1.      0.      0.      1.
$ Femap Constraint Set 1 : Physical Constraints
SPC1           1  123456      15
SPC1           1  123456      27
$ Femap Constraint Set 2 : ASET
ASET          11  123456
ASET          25  123456
$ Femap Constraint Set 3 : QSET
QSET           2        
QSET           3        
QSET           4        
QSET           5        
$ Femap Property 1 : Beam
$ Femap PropShape 1 : 1,0,20.,40.,0.,0.,0.,0.
$ Femap PropMethod 1 : 1,0,1,0.3
$ Femap PropOrient 1 : 1,0,0.,1.,2.,3.,4.,-1.,0.,0.
PBEAM          1     501    800.106666.726666.67      0.73270.28      0.+       
+           -20.    -10.     20.    -10.     20.     10.    -20.     10.+       
+           YESA      1.                                                +       
+       .8499302.8507011                                                        
$ Femap Property 2 : BAR Property (Rectangular Bar)
$ Femap PropShape 2 : 1,0,30.,60.,0.,0.,0.,0.
$ Femap PropMethod 2 : 1,0,1,0.3
$ Femap PropOrient 2 : 1,0,0.,1.,2.,3.,4.,-1.,0.,0.
PBAR           2     501   1800. 540000. 135000.370930.8      0.        +       
+           -30.    -15.     30.    -15.     30.     15.    -30.     15.+       
+       .8499306.8507011      0.
$ Femap Property 3 : Rung
PROD           3     5011256.637251327.4      0.      0.
$ Femap Material 501 : AISI 4340 Steel
MAT1         501   2.9+7             .327.3315-4   6.6-6     70.        +       
+        215000. 240000. 156000.
MAT4         5014.8611-4   38.647.3315-4                        
GRID           1       0    720.      0.      0.       0
SPOINT         2                        
SPOINT         3                        
SPOINT         4                        
SPOINT         5                        
GRID           7       0   1080.      0.      0.       0
GRID           8       0   1440.      0.      0.       0
GRID           9       0   1800.      0.      0.       0
GRID          11       0   2160.      0.      0.       0
GRID          13       0   2520.      0.      0.       0
GRID          15       0   2880.      0.      0.       0
GRID          16       0    720.   -360.      0.       0
GRID          22       0   1080.   -360.      0.       0
GRID          23       0   1440.   -360.      0.       0
GRID          24       0   1800.   -360.      0.       0
GRID          25       0   2160.   -360.      0.       0
GRID          26       0   2520.   -360.      0.       0
GRID          27       0   2880.   -360.      0.       0
CROD           1       3      16       1
CBEAM         11       1       1       7      0.      1.      0.
CBEAM         12       1       7       8      0.      1.      0.
CBAR          13       2       8       9      0.      1.      0.
CBAR          14       2       9      11      0.      1.      0.
CBAR          15       2      11      13      0.      1.      0.
CBAR          16       2      13      15      0.      1.      0.
CBEAM         27       1      16      22      0.      1.      0.
CBEAM         28       1      22      23      0.      1.      0.
CBAR          29       2      23      24      0.      1.      0.
CBAR          30       2      24      25      0.      1.      0.
CBAR          31       2      25      26      0.      1.      0.
CBAR          32       2      26      27      0.      1.      0.
CROD          49       3      22       7
CROD          50       3      23       8
CROD          51       3      24       9
CROD          52       3      25      11
CROD          53       3      26      13
ENDDATA 102314ae
