$ Aluminum
MAT1,501,1440.E6,,.33,5.37078819    
$                                                                              
$1------2-------3-------4-------5-------6-------7-------8-------9-------
$SPC1   SID     C       G1      G2      G3      G4      G5      G6      
SPC1,1,123456,1,,,,,,                                                        
$                                                                       
CBEAM,1,101,1,2,0.,1.,0.,,                           
CBEAM,2,102,2,3,0.,1.,0.,,  
CBEAM,3,103,3,4,0.,1.,0.,,  
CBEAM,4,104,4,5,0.,1.,0.,,  
CBEAM,5,105,5,6,0.,1.,0.,,
$1------2-------3-------4-------5-------6-------7-------8-------9-------
$GRID   ID      CP      X1      X2      X3      CD      PS      SEID    
GRID,1,0,0.0,0.0,0.0,0,,,                                      
GRID,2,0,1.0,0.0,0.0,0,,, 
GRID,3,0,2.0,0.0,0.0,0,,, 
GRID,4,0,3.0,0.0,0.0,0,,, 
GRID,5,0,4.0,0.0,0.0,0,,, 
GRID,6,0,5.0,0.0,0.0,0,,,                                      
$
FORCE,1,6,,1.0E8,0.25,0.5,-1.0
$ MOMENT,1,6,,1.0E8,2.0,-3.0,0.75
$
$
PBEAM,101,501,15000.,2500.,250.,0.0,25000.,0.0
,.1,.1,-0.1,.1,-0.1,-0.1,.1,-0.1
,0.0,0.0
PBEAM,102,501,15000.,2500.,250.,0.0,25000.,0.0
,.1,.1,-0.1,.1,-0.1,-0.1,.1,-0.1
,0.0,0.0
PBEAM,103,501,15000.,2500.,250.,0.0,25000.,0.0
,.1,.1,-0.1,.1,-0.1,-0.1,.1,-0.1
,0.0,0.0
PBEAM,104,501,15000.,2500.,250.,0.0,25000.,0.0
,.1,.1,-0.1,.1,-0.1,-0.1,.1,-0.1
,0.0,0.0
PBEAM,105,501,15000.,2500.,250.,0.0,25000.,0.0
,.1,.1,-0.1,.1,-0.1,-0.1,.1,-0.1
,0.0,0.0