PARAM,GRDPNT,0
SPC            1       1  123456      0.
PBAR           1       1     0.1    0.01    0.01   0.001      0.
MAT1           1  2.9E+7  1.1E+7    0.327.357E-4   6.E-6     70. 
GRDSET                                                      1345
GRID           1       0      0.      0.      0.       0        
GRID           2       0      1.      0.      0.       0        
GRID           3       0      2.      0.      0.       0        
GRID           4       0      3.      0.      0.       0        
GRID           5       0      4.      0.      0.       0        
GRID           6       0      5.      0.      0.       0 
CBAR           1       1       1       2      0.      1.      0.
CBAR           2       1       2       3      0.      1.      0.
CBAR           3       1       3       4      0.      1.      0.
CBAR           4       1       4       5      0.      1.      0.
CBAR           5       1       5       6      0.      1.      0.