$
$ GRID Points ...........................................
$
GRID,1,,720.0,0.0,0.0
GRID,2,,720.0,0.0,-360.0
GRID,3,,360.0,0.0,0.0
GRID,4,,360.0,0.0,-360.0
GRID,5,,0.0,0.0,0.0,,123456
GRID,6,,0.0,0.0,-360.0,,123456
$
$ CROD Elements  ........................................
$
CROD,1,101,5,3
CROD,2,201,3,1
CROD,3,101,6,4
CROD,4,201,4,2
CROD,5,501,3,4
CROD,6,601,1,2
CROD,7,701,5,4
CROD,8,701,6,3
CROD,9,901,3,2
CROD,10,901,4,1
$
$1------2-------3-------4-------5-------6-------7-------8-------9-------        
PROD,101,501,9.5318,25000.,0.0
PROD,201,501,9.5318,25000.,0.0
PROD,501,501,9.5318,25000.,0.0
PROD,601,501,9.5318,25000.,0.0
PROD,701,501,9.5318,25000.,0.0
PROD,901,501,9.5318,25000.,0.0
$
$
$ Discreate Masses
PMASS,110,2.588
CMASS1,1,110,3,1,,,,,
CMASS1,2,110,3,2,,,,,
CMASS1,3,110,3,3,,,,,
CMASS1,4,110,4,1,,,,,
CMASS1,5,110,4,2,,,,,
CMASS1,6,110,4,3,,,,,
CMASS1,7,110,1,1,,,,,
CMASS1,8,110,1,2,,,,,
CMASS1,9,110,1,3,,,,,
CMASS1,10,110,2,1,,,,,
CMASS1,11,110,2,2,,,,,
CMASS1,12,110,2,3,,,,,
$
$
$
FORCE,88,1,,-1.,0.,0.,1.
$
$1------2-------3-------4-------5-------6-------7-------8-------9-------
$GRDSET                                                 PS                                                  
GRDSET                                                  2456
$
$$ Material
MAT1,501,1.E7,,.33,2.59E-4
$
$
$1------2-------3-------4-------5-------6-------7-------8-------9-------
EIGRL   30                      6
EIGRL   10                      2
EIGRL   20                      4