$ Femap Property 1 : Beam
$ Femap PropShape 1 : 1,0,20.,40.,0.,0.,0.,0.
$ Femap PropMethod 1 : 1,0,1,0.3
$ Femap PropOrient 1 : 1,0,0.,1.,2.,3.,4.,-1.,0.,0.
PBEAM          1     501    800.106666.726666.67      0.73270.28      0.+       
+           -20.    -10.     20.    -10.     20.     10.    -20.     10.+       
+           YESA      1.                                                +       
+       .8499302.8507011                                                        
$ Femap Property 2 : BAR Property (Rectangular Bar)
$ Femap PropShape 2 : 1,0,30.,60.,0.,0.,0.,0.
$ Femap PropMethod 2 : 1,0,1,0.3
$ Femap PropOrient 2 : 1,0,0.,1.,2.,3.,4.,-1.,0.,0.
PBAR           2     501   1800. 540000. 135000.370930.8      0.        +       
+           -30.    -15.     30.    -15.     30.     15.    -30.     15.+       
+       .8499306.8507011      0.
$ Femap Property 3 : Rung
PROD           3     5011256.637251327.4      0.      0.
$ Femap Material 501 : AISI 4340 Steel
MAT1         501   2.9+7             .327.3315-4   6.6-6     70.        +       
+        215000. 240000. 156000.
MAT4         5014.8611-4   38.647.3315-4                        
GRID*                  1               0            720.              0.
*                     0.               0
GRID*                  7               0           1080.              0.
*                     0.               0
GRID*                  8               0           1440.              0.
*                     0.               0
GRID*                  9               0           1800.              0.
*                     0.               0
GRID*                 11               0           2160.              0.
*                     0.               0
GRID*                 16               0            720.           -360.
*                     0.               0
GRID*                 22               0           1080.           -360.
*                     0.               0
GRID*                 23               0           1440.           -360.
*                     0.               0
GRID*                 24               0           1800.           -360.
*                     0.               0
GRID*                 25               0           2160.           -360.
*                     0.               0
CROD           1       3      16       1
CBEAM         11       1       1       7      0.      1.      0.
CBEAM         12       1       7       8      0.      1.      0.
CBAR          13       2       8       9      0.      1.      0.
CBAR          14       2       9      11      0.      1.      0.
CBEAM         27       1      16      22      0.      1.      0.
CBEAM         28       1      22      23      0.      1.      0.
CBAR          29       2      23      24      0.      1.      0.
CBAR          30       2      24      25      0.      1.      0.
CROD          49       3      22       7
CROD          50       3      23       8
CROD          51       3      24       9
