INIT MASTER(S)
NASTRAN SYSTEM(442)=-1,SYSTEM(319)=1
ID mesh,FEMAP
SOL SESTATIC
CEND
  TITLE = Static Analysis
  DISPLACEMENT(PLOT) = ALL
  SPCFORCES(PLOT) = ALL
  FORCE(PLOT) = ALL
  STRESS(PLOT) = ALL
  STRAIN(PLOT,FIBER) = ALL
  SPC = 1
SUBCASE 1
  SUBTITLE = Bend
  LOAD = 1
$ SUBCASE 2
$   SUBTITLE = Normal
$   LOAD = 2
$ SUBCASE 3
$   SUBTITLE = Shear
$   LOAD = 3
BEGIN BULK
$GRDSET                                                 PS
GRDSET                                                  6
MDLPRM,HDF5,0
$ ***************************************************************************
$   Written by : Femap
$   Version    : 2020.2.0
$   Translator : Simcenter Nastran
$   From Model : S:\aricciar\20210521_CoFE\v7_flat_shell_irregular_tria3\mesh.modfem
$   Date       : Tue Jun 22 10:12:55 2021
$   Output To  : S:\aricciar\20210521_CoFE\v7_flat_shell_irregular_tria3\
$ ***************************************************************************
$
PARAM,PRGPST,NO
PARAM,POST,-1
PARAM,OGEOM,NO
PARAM,AUTOSPC,YES
PARAM,K6ROT,100.
PARAM,GRDPNT,0
CORD2C         1       0      0.      0.      0.      0.      0.      1.+FEMAPC1
+FEMAPC1      1.      0.      1.        
CORD2S         2       0      0.      0.      0.      0.      0.      1.+FEMAPC2
+FEMAPC2      1.      0.      1.        
$ Femap Load Set 1 : Bend
FORCE          1      26       0      1.      0.      0..0071429
FORCE          1      27       0      1.      0.      0..0159341
FORCE          1      28       0      1.      0.      0..0192308
FORCE          1      29       0      1.      0.      0..0225275
FORCE          1      30       0      1.      0.      0..0258242
FORCE          1      31       0      1.      0.      0..0291209
FORCE          1      32       0      1.      0.      0..0324176
FORCE          1      33       0      1.      0.      0..0357143
FORCE          1      34       0      1.      0.      0. .039011
FORCE          1      35       0      1.      0.      0..0423077
FORCE          1      36       0      1.      0.      0..0456044
FORCE          1      37       0      1.      0.      0..0489011
FORCE          1      38       0      1.      0.      0..0521978
FORCE          1      39       0      1.      0.      0..0554945
FORCE          1      40       0      1.      0.      0..0571429
FORCE          1      41       0      1.      0.      0..0554945
FORCE          1      42       0      1.      0.      0..0521978
FORCE          1      43       0      1.      0.      0..0489011
FORCE          1      44       0      1.      0.      0..0456044
FORCE          1      45       0      1.      0.      0..0423077
$ ... 9 like lines cut
$ Femap Load Set 2 : Normal
FORCE          2      26       0      1..0071429      0.      0.
FORCE          2      27       0      1..0159341      0.      0.
FORCE          2      28       0      1..0192308      0.      0.
FORCE          2      29       0      1..0225275      0.      0.
FORCE          2      30       0      1..0258242      0.      0.
FORCE          2      31       0      1..0291209      0.      0.
FORCE          2      32       0      1..0324176      0.      0.
FORCE          2      33       0      1..0357143      0.      0.
FORCE          2      34       0      1. .039011      0.      0.
FORCE          2      35       0      1..0423077      0.      0.
FORCE          2      36       0      1..0456044      0.      0.
FORCE          2      37       0      1..0489011      0.      0.
FORCE          2      38       0      1..0521978      0.      0.
FORCE          2      39       0      1..0554945      0.      0.
FORCE          2      40       0      1..0571429      0.      0.
FORCE          2      41       0      1..0554945      0.      0.
FORCE          2      42       0      1..0521978      0.      0.
FORCE          2      43       0      1..0489011      0.      0.
FORCE          2      44       0      1..0456044      0.      0.
FORCE          2      45       0      1..0423077      0.      0.
$ ... 9 like lines cut
$ Femap Load Set 3 : Shear
FORCE          3      26       0      1.      0..0071429      0.
FORCE          3      27       0      1.      0..0159341      0.
FORCE          3      28       0      1.      0..0192308      0.
FORCE          3      29       0      1.      0..0225275      0.
FORCE          3      30       0      1.      0..0258242      0.
FORCE          3      31       0      1.      0..0291209      0.
FORCE          3      32       0      1.      0..0324176      0.
FORCE          3      33       0      1.      0..0357143      0.
FORCE          3      34       0      1.      0. .039011      0.
FORCE          3      35       0      1.      0..0423077      0.
FORCE          3      36       0      1.      0..0456044      0.
FORCE          3      37       0      1.      0..0489011      0.
FORCE          3      38       0      1.      0..0521978      0.
FORCE          3      39       0      1.      0..0554945      0.
FORCE          3      40       0      1.      0..0571429      0.
FORCE          3      41       0      1.      0..0554945      0.
FORCE          3      42       0      1.      0..0521978      0.
FORCE          3      43       0      1.      0..0489011      0.
FORCE          3      44       0      1.      0..0456044      0.
FORCE          3      45       0      1.      0..0423077      0.
$ ... 9 like lines cut
$ Femap Constraint Set 1 : fix edge
SPC1           1  123456       1
SPC1           1  123456      84
SPC1           1  123456      85
SPC1           1  123456      86
SPC1           1  123456      87
SPC1           1  123456      88
SPC1           1  123456      89
SPC1           1  123456      90
SPC1           1  123456      91
SPC1           1  123456      92
SPC1           1  123456      93
SPC1           1  123456      94
SPC1           1  123456      95
SPC1           1  123456      96
SPC1           1  123456      97
SPC1           1  123456      98
SPC1           1  123456      99
SPC1           1  123456     100
SPC1           1  123456     101
SPC1           1  123456     102
$ ... 7 like lines cut
$ Femap Property 1 : shell
PSHELL         1       1      .1       1               1              0.
$ Femap Material 1 : AISI 4340 Steel
MAT1           1   2.9+7             .32     .29   6.6-6     70.        +       
+        215000. 240000. 156000.
MAT4           14.8611-4   38.64     .29                        
GRID           1       0      0.      0.      0.       0
GRID           2       0.0163934      0.      0.       0
GRID           3       0.0368852      0.      0.       0
GRID           4       0.0614754      0.      0.       0
GRID           5       0.0901639      0.      0.       0
GRID           6       0.1229508      0.      0.       0
GRID           7       0.1598361      0.      0.       0
GRID           8       0.2008197      0.      0.       0
GRID           9       0.2459016      0.      0.       0
GRID          10       0 .295082      0.      0.       0
GRID          11       0.3483607      0.      0.       0
GRID          12       0.4057377      0.      0.       0
GRID          13       0.4672131      0.      0.       0
GRID          14       0.5327869      0.      0.       0
GRID          15       0.5942623      0.      0.       0
GRID          16       0.6516393      0.      0.       0
GRID          17       0 .704918      0.      0.       0
GRID          18       0.7540984      0.      0.       0
GRID          19       0.7991803      0.      0.       0
GRID          20       0.8401639      0.      0.       0
$ ... 875 like lines cut
CTRIA3         1       1     157      50      51                        
CTRIA3         2       1      60     432     135                        
CTRIA3         3       1     173     174     136                        
CTRIA3         4       1     399      62      63                        
CTRIA3         5       1      62     399     127                        
CTRIA3         6       1      64     113      63                        
CTRIA3         7       1     190      66     111                        
CTRIA3         8       1     187     614     421                        
CTRIA3         9       1     123     630      16                        
CTRIA3        10       1     444     437     193                        
CTRIA3        11       1     437     444      39                        
CTRIA3        12       1     328      37      38                        
CTRIA3        13       1     322     321     145                        
CTRIA3        14       1     361      36     117                        
CTRIA3        15       1     208     529     320                        
CTRIA3        16       1     171      23      24                        
CTRIA3        17       1     393      33      34                        
CTRIA3        18       1      31     429     141                        
CTRIA3        19       1      23     149      22                        
CTRIA3        20       1      23     171     149                        
$ ... 1659 like lines cut
ENDDATA ad86c401
