CMASS1,101,100,1,1
CMASS1,102,100,1,1
CMASS1,103,100,1,1
CMASS1,201,100,2,1
CMASS1,202,100,2,1
CMASS1,203,100,2,1
CMASS1,301,100,3,1
CMASS1,302,100,3,1
CMASS1,303,100,3,1
CMASS1,401,100,4,1
CMASS1,402,100,4,1
CMASS1,403,100,4,1
CROD,1,1,1,5
CROD,2,1,2,6
CROD,3,1,3,7
CROD,4,1,4,8
CROD,5,2,5,2
CROD,6,2,1,6
CROD,7,2,6,3
CROD,8,2,2,7
CROD,9,2,7,4
CROD,10,2,3,8
CROD,11,2,8,1
CROD,12,2,4,5
CROD,13,3,1,2
CROD,14,3,2,3
CROD,15,3,3,4
CROD,16,3,4,1
CROD,17,4,1,3
CROD,18,4,2,4
CROD,19,5,5,9
CROD,20,5,6,10
$ ... 52 like lines cut
FORCE,1,1,,1.000000,5000.000000,5000.000000,-5000.000000
FORCE,2,1,,1.000000,0.000000,0.000000,-5000.000000
FORCE,2,2,,1.000000,0.000000,0.000000,-5000.000000
FORCE,2,3,,1.000000,0.000000,0.000000,-5000.000000
FORCE,2,4,,1.000000,0.000000,0.000000,-5000.000000
GRID,1,0,0.000000,0.000000,240.000000,0
GRID,2,0,120.000000,0.000000,240.000000,0
GRID,3,0,120.000000,120.000000,240.000000,0
GRID,4,0,0.000000,120.000000,240.000000,0
GRID,5,0,0.000000,0.000000,180.000000,0
GRID,6,0,120.000000,0.000000,180.000000,0
GRID,7,0,120.000000,120.000000,180.000000,0
GRID,8,0,0.000000,120.000000,180.000000,0
GRID,9,0,0.000000,0.000000,120.000000,0
GRID,10,0,120.000000,0.000000,120.000000,0
GRID,11,0,120.000000,120.000000,120.000000,0
GRID,12,0,0.000000,120.000000,120.000000,0
GRID,13,0,0.000000,0.000000,60.000000,0
GRID,14,0,120.000000,0.000000,60.000000,0
GRID,15,0,120.000000,120.000000,60.000000,0
GRID,16,0,0.000000,120.000000,60.000000,0
GRID,17,0,0.000000,0.000000,0.000000,0
GRID,18,0,120.000000,0.000000,0.000000,0
GRID,19,0,120.000000,120.000000,0.000000,0
GRID,20,0,0.000000,120.000000,0.000000,0
MAT1,101,10000000.000000,3759398.496241,0.330000,0.000259
PMASS,100,12.950000
PROD,1,101,0.156462,999.000000,,0.000000
PROD,2,101,0.545578,999.000000,,0.000000
PROD,3,101,0.410354,999.000000,,0.000000
PROD,4,101,0.569727,999.000000,,0.000000
PROD,5,101,0.523648,999.000000,,0.000000
PROD,6,101,0.517080,999.000000,,0.000000
PROD,7,101,0.100000,999.000000,,0.000000
PROD,8,101,0.100009,999.000000,,0.000000
PROD,9,101,1.269067,999.000000,,0.000000
PROD,10,101,0.511629,999.000000,,0.000000
PROD,11,101,0.100000,999.000000,,0.000000
PROD,12,101,0.100000,999.000000,,0.000000
PROD,13,101,1.885971,999.000000,,0.000000
PROD,14,101,0.512285,999.000000,,0.000000
PROD,15,101,0.100000,999.000000,,0.000000
PROD,16,101,0.100000,999.000000,,0.000000
SPC1,1,123,17
SPC1,1,123,18
SPC1,1,123,19
SPC1,1,123,20
SPC1,1,456,1
SPC1,1,456,2
SPC1,1,456,3
SPC1,1,456,4
SPC1,1,456,5
SPC1,1,456,6
SPC1,1,456,7
SPC1,1,456,8
SPC1,1,456,9
SPC1,1,456,10
SPC1,1,456,11
SPC1,1,456,12
SPC1,1,456,13
SPC1,1,456,14
SPC1,1,456,15
SPC1,1,456,16
$ ... 4 like lines cut
