$1------2-------3-------4-------5-------6-------7-------8-------9-------
$1      2       3       4       5       6       7       8       9       
GRID,1,0,0.000000,0.000000,0.000000,0,,,
GRID,1001,0,-0.421336,0.294017,0.035832,0,,,
GRID,2001,0,-0.084268,0.058804,0.007166,0,,,
GRID,4001,0,0.084268,-0.058804,-0.007166,0,,,
GRID,5001,0,0.421336,-0.294017,-0.035832,0,,,
GRID,2,0,0.311781,0.440255,0.053653,0,,,
GRID,1002,0,-0.109555,0.734271,0.089485,0,,,
GRID,2002,0,0.227514,0.499058,0.060820,0,,,
GRID,4002,0,0.396049,0.381451,0.046487,0,,,
GRID,5002,0,0.733117,0.146238,0.017822,0,,,
GRID,3,0,0.623563,0.880509,0.107307,0,,,
GRID,1003,0,0.202226,1.174526,0.143138,0,,,
GRID,2003,0,0.539295,0.939313,0.114473,0,,,
GRID,4003,0,0.707830,0.821706,0.100140,0,,,
GRID,5003,0,1.044899,0.586492,0.071475,0,,,
GRID,4,0,0.935344,1.320764,0.160960,0,,,
GRID,1004,0,0.514008,1.614781,0.196792,0,,,
GRID,2004,0,0.851076,1.379567,0.168126,0,,,
GRID,4004,0,1.019611,1.261960,0.153794,0,,,
GRID,5004,0,1.356680,1.026747,0.125129,0,,,
$ ... 230 like lines cut
$1------2-------3-------4-------5-------6-------7-------8-------9-------
$1      2       3       4       5       6       7       8       9       
CBEAM,1,101,2001,2002,1.000000,0.000000,0.000000,,
CBEAM,2,101,4001,4002,1.000000,0.000000,0.000000,,
CBEAM,3,101,2002,2003,1.000000,0.000000,0.000000,,
CBEAM,4,101,4002,4003,1.000000,0.000000,0.000000,,
CBEAM,5,102,2002,4002,0.000000,1.000000,0.000000,,
CBEAM,6,101,2003,2004,1.000000,0.000000,0.000000,,
CBEAM,7,101,4003,4004,1.000000,0.000000,0.000000,,
CBEAM,8,102,2003,4003,0.000000,1.000000,0.000000,,
CBEAM,9,101,2004,2005,1.000000,0.000000,0.000000,,
CBEAM,10,101,4004,4005,1.000000,0.000000,0.000000,,
CBEAM,11,102,2004,4004,0.000000,1.000000,0.000000,,
CBEAM,12,101,2005,2006,1.000000,0.000000,0.000000,,
CBEAM,13,101,4005,4006,1.000000,0.000000,0.000000,,
CBEAM,14,102,2005,4005,0.000000,1.000000,0.000000,,
CBEAM,15,101,2006,2007,1.000000,0.000000,0.000000,,
CBEAM,16,101,4006,4007,1.000000,0.000000,0.000000,,
CBEAM,17,102,2006,4006,0.000000,1.000000,0.000000,,
CBEAM,18,101,2007,2008,1.000000,0.000000,0.000000,,
CBEAM,19,101,4007,4008,1.000000,0.000000,0.000000,,
CBEAM,20,102,2007,4007,0.000000,1.000000,0.000000,,
$ ... 124 like lines cut
$1------2-------3-------4-------5-------6-------7-------8-------9-------
$1      2       3       4       5       6       7       8       9       
MAT1,501,1440000000.000000,,0.330000,5.370788,,,,
$1------2-------3-------4-------5-------6-------7-------8-------9-------
$1      2       3       4       5       6       7       8       9       
$       12      13      14      15      16      17      18      19      
PBEAML,101,501,,BAR,,,,,
,0.039934,0.100359,0.018830,,,,,,
PBEAML,102,501,,ROD,,,,,
,0.062164,0.000000,,,,,,,
PBEAML,201,501,,BAR,,,,,
,0.026962,0.020000,0.009911,,,,,,
PBEAML,202,501,,ROD,,,,,
,0.005980,0.000000,,,,,,,
$1------2-------3-------4-------5-------6-------7-------8-------9-------
$1      2       3       4       5       6       7       8       9       
SPC1,1,123456,2001,,,,,,
SPC1,1,123456,4001,,,,,,
SPC1,1,123456,2021,,,,,,
SPC1,1,123456,4021,,,,,,
$1------2-------3-------4-------5-------6-------7-------8-------9-------
$1      2       3       4       5       6       7       8       9       
$       12      13      14      15      16      17      18      19      
CORD2R,18,,0.000000,0.000000,0.000000,0.000000,-0.121869,1.000000,
,0.809017,-0.587785,0.121869,,,,,,
CORD2R,19,,8.843000,0.000000,2.594300,8.843000,0.026900,2.684100,
,8.922300,0.052800,2.578500,,,,,,
$1------2-------3-------4-------5-------6-------7-------8-------9-------
$1      2       3       4       5       6       7       8       9       
CMASS1,3000,110,1001,1,,,,,
CMASS1,3001,110,1001,2,,,,,
CMASS1,3002,110,1001,3,,,,,
CMASS1,3003,110,5001,1,,,,,
CMASS1,3004,110,5001,2,,,,,
CMASS1,3005,110,5001,3,,,,,
CMASS1,3006,110,1002,1,,,,,
CMASS1,3007,110,1002,2,,,,,
CMASS1,3008,110,1002,3,,,,,
CMASS1,3009,110,5002,1,,,,,
CMASS1,3010,110,5002,2,,,,,
CMASS1,3011,110,5002,3,,,,,
CMASS1,3012,110,1003,1,,,,,
CMASS1,3013,110,1003,2,,,,,
CMASS1,3014,110,1003,3,,,,,
CMASS1,3015,110,5003,1,,,,,
CMASS1,3016,110,5003,2,,,,,
CMASS1,3017,110,5003,3,,,,,
CMASS1,3018,110,1004,1,,,,,
CMASS1,3019,110,1004,2,,,,,
$ ... 280 like lines cut
$1------2-------3-------4-------5-------6-------7-------8-------9-------
$1      2       3       4       5       6       7       8       9       
PMASS,110,6.928989e-03,,,,,,,
PMASS,210,9.265104e-22,,,,,,,
$1------2-------3-------4-------5-------6-------7-------8-------9-------
$1      2       3       4       5       6       7       8       9       
RBE2,1000,1,123456,1001,5001,,,,
RBE2,1001,2,123456,1002,5002,,,,
RBE2,1002,3,123456,1003,5003,,,,
RBE2,1003,4,123456,1004,5004,,,,
RBE2,1004,5,123456,1005,5005,,,,
RBE2,1005,6,123456,1006,5006,,,,
RBE2,1006,7,123456,1007,5007,,,,
RBE2,1007,8,123456,1008,5008,,,,
RBE2,1008,9,123456,1009,5009,,,,
RBE2,1009,10,123456,1010,5010,,,,
RBE2,1010,11,123456,1011,5011,,,,
RBE2,1011,12,123456,1012,5012,,,,
RBE2,1012,13,123456,1013,5013,,,,
RBE2,1013,14,123456,1014,5014,,,,
RBE2,1014,15,123456,1015,5015,,,,
RBE2,1015,16,123456,1016,5016,,,,
RBE2,1016,17,123456,1017,5017,,,,
RBE2,1017,18,123456,1018,5018,,,,
RBE2,1018,19,123456,1019,5019,,,,
RBE2,1019,20,123456,1020,5020,,,,
$ ... 30 like lines cut
RBE2,10000,2015,123456,4015,2050,4050,,,
$1------2-------3-------4-------5-------6-------7-------8-------9-------
$1      2       3       4       5       6       7       8       9       
RBE3,2000,,1,123456,1.000000,123456,2001,4001,
RBE3,2001,,2,123456,1.000000,123456,2002,4002,
RBE3,2002,,3,123456,1.000000,123456,2003,4003,
RBE3,2003,,4,123456,1.000000,123456,2004,4004,
RBE3,2004,,5,123456,1.000000,123456,2005,4005,
RBE3,2005,,6,123456,1.000000,123456,2006,4006,
RBE3,2006,,7,123456,1.000000,123456,2007,4007,
RBE3,2007,,8,123456,1.000000,123456,2008,4008,
RBE3,2008,,9,123456,1.000000,123456,2009,4009,
RBE3,2009,,10,123456,1.000000,123456,2010,4010,
RBE3,2010,,11,123456,1.000000,123456,2011,4011,
RBE3,2011,,12,123456,1.000000,123456,2012,4012,
RBE3,2012,,13,123456,1.000000,123456,2013,4013,
RBE3,2013,,14,123456,1.000000,123456,2014,4014,
RBE3,2014,,15,123456,1.000000,123456,2015,4015,
RBE3,2015,,16,123456,1.000000,123456,2016,4016,
RBE3,2016,,17,123456,1.000000,123456,2017,4017,
RBE3,2017,,18,123456,1.000000,123456,2018,4018,
RBE3,2018,,19,123456,1.000000,123456,2019,4019,
RBE3,2019,,20,123456,1.000000,123456,2020,4020,
$ ... 30 like lines cut
FORCE,88,1,,0.001371742112483,-46.870384,-174.575167,1478.640158
FORCE,88,2,,0.001371742112483,-44.309304,-334.970111,2416.658325
FORCE,88,3,,0.001371742112483,-76.523505,-353.713667,2264.718485
FORCE,88,4,,0.001371742112483,-86.014411,-401.961260,2327.074678
FORCE,88,5,,0.001371742112483,-91.815692,-438.411157,2365.872628
FORCE,88,6,,0.001371742112483,-91.882388,-470.641267,2420.338500
FORCE,88,7,,0.001371742112483,-88.123557,-497.041463,2483.151798
FORCE,88,8,,0.001371742112483,-81.889283,-518.145521,2557.196893
FORCE,88,9,,0.001371742112483,-74.532651,-534.200264,2642.937478
FORCE,88,10,,0.001371742112483,-66.279638,-545.956606,2738.900235
FORCE,88,11,,0.001371742112483,-55.910834,-554.354426,2838.870433
FORCE,88,12,,0.001371742112483,-34.601881,-561.083023,2910.463666
FORCE,88,13,,0.001371742112483,-5.475016,-559.660960,2915.804830
FORCE,88,14,,0.001371742112483,-12.581266,-541.892742,2953.422572
FORCE,88,15,,0.001371742112483,-0.929230,-545.337972,2986.542846
FORCE,88,16,,0.001371742112483,-1.342430,-536.439478,2948.040707
FORCE,88,17,,0.001371742112483,6.413668,-523.866015,2863.696780
FORCE,88,18,,0.001371742112483,2.733655,-483.453500,2681.492209
FORCE,88,19,,0.001371742112483,-12.323579,-316.900387,1825.442453
FORCE,88,20,,0.001371742112483,-23.054895,-53.271685,385.541201
$ ... 130 like lines cut
$
$
$ Gravity Vector and Acceleration ...........................................
$
GRAV,88,0,80.500000,0.162368,0.000000,-0.986730
$
$
EIGRL   1                       10                              MAX
