CROD,1,101,5,3
CROD,2,201,3,1
CROD,3,301,6,4
CROD,4,401,4,2
CROD,5,501,3,4
CROD,6,601,1,2
CROD,7,701,5,4
CROD,8,801,6,3
CROD,9,901,3,2
CROD,10,1001,4,1
FORCE,88,2,,100000.000000,0.000000,0.000000,-1.000000
FORCE,88,4,,100000.000000,0.000000,0.000000,-1.000000
GRID,1,0,634.359373,0.000000,-163.789628,0
GRID,2,0,720.000000,0.000000,-360.000000,0
GRID,3,0,430.695033,0.000000,-82.005507,0
GRID,4,0,360.000000,0.000000,-360.000000,0
GRID,5,0,0.000000,0.000000,0.000000,0
GRID,6,0,0.000000,0.000000,-360.000000,0
MAT1,501,10000000.000000,3759398.496241,0.330000,0.100000
PROD,101,501,8.071153,25000.000000,,0.000000
PROD,201,501,0.139468,25000.000000,,0.000000
PROD,301,501,8.252161,25000.000000,,0.000000
PROD,401,501,4.096192,25000.000000,,0.000000
PROD,501,501,0.100000,25000.000000,,0.000000
PROD,601,501,0.120182,25000.000000,,0.000000
PROD,701,501,5.757671,25000.000000,,0.000000
PROD,801,501,4.460736,25000.000000,,0.000000
PROD,901,501,5.614107,25000.000000,,0.000000
PROD,1001,501,0.100008,25000.000000,,0.000000
SPC1,1,123456,5
SPC1,1,123456,6
SPC1,1,2456,1
SPC1,1,2456,2
SPC1,1,2456,3
SPC1,1,2456,4
