$ Direct Text Input for Bulk Data
$ Elements and Element Properties for region : Elm_2149
PSHELL   1       1       .01     1               1
$ Pset: "Elm_2149" will be imported as: "pshell.1"
CQUAD4   1       1       1       2       43      42
CQUAD4   2       1       2       3       44      43
CQUAD4   3       1       3       4       45      44
CQUAD4   4       1       4       5       46      45
CQUAD4   5       1       5       6       47      46
CQUAD4   6       1       6       7       48      47
CQUAD4   7       1       7       8       49      48
CQUAD4   8       1       8       9       50      49
CQUAD4   9       1       9       10      51      50
CQUAD4   10      1       10      11      52      51
CQUAD4   11      1       11      12      53      52
CQUAD4   12      1       12      13      54      53
CQUAD4   13      1       13      14      55      54
CQUAD4   14      1       14      15      56      55
CQUAD4   15      1       15      16      57      56
CQUAD4   16      1       16      17      58      57
CQUAD4   17      1       17      18      59      58
CQUAD4   18      1       18      19      60      59
CQUAD4   19      1       19      20      61      60
CQUAD4   20      1       20      21      62      61
$ ... 4780 like lines cut
$ Referenced Material Records
$ Material Record : mat
$ Description of Material : Date: 16-Apr-04           Time: 10:05:09
MAT1     1       205000.         .3
$ Default Constraints
GRDSET                                                   3456     
$ Nodes of the Entire Model
GRID     1               0.      0.      0.
GRID     2               0.      .05     0.
GRID     3               0.      .1      0.
GRID     4               0.      .15     0.
GRID     5               0.      .2      0.
GRID     6               0.      .25     0.
GRID     7               0.      .3      0.
GRID     8               0.      .35     0.
GRID     9               0.      .4      0.
GRID     10              0.      .45     0.
GRID     11              0.      .5      0.
GRID     12              0.      .55     0.
GRID     13              0.      .6      0.
GRID     14              0.      .65     0.
GRID     15              0.      .7      0.
GRID     16              0.      .75     0.
GRID     17              0.      .8      0.
GRID     18              0.      .85     0.
GRID     19              0.      .9      0.
GRID     20              0.      .95     0.
$ ... 25 like lines cut
GRID*    46                              .0500001        .2
*        0.
GRID*    47                              .0500001        .25
*        0.
GRID*    48                              .0500001        .3
*        0.
GRID*    49                              .0500001        .35
*        0.
GRID*    50                              .0500001        .4
*        0.
GRID*    51                              .0500001        .45
*        0.
GRID*    52                              .0500002        .5
*        0.
GRID*    53                              .0500002        .55
*        0.
GRID*    54                              .0500002        .6
*        0.
GRID*    55                              .0500002        .65
*        0.
GRID*    56                              .0500002        .7
*        0.
GRID*    57                              .0500002        .75
*        0.
GRID*    58                              .0500003        .8
*        0.
GRID*    59                              .0500003        .85
*        0.
GRID*    60                              .0500003        .9
*        0.
GRID*    61                              .0500003        .95
*        0.
GRID*    62                              .0500003        1.
*        0.
GRID*    63                              .0500003        1.05
*        0.
GRID*    64                              .0500003        1.1
*        0.
GRID*    65                              .0500004        1.15
*        0.
$ ... 34 like lines cut
GRID     83              .1      0.      0.
GRID     84              .1      .05     0.
GRID     85              .1      .1      0.
GRID     86              .1      .15     0.
GRID     87              .1      .2      0.
GRID     88              .1      .25     0.
GRID     89              .1      .3      0.
GRID     90              .1      .35     0.
GRID     91              .1      .4      0.
GRID     92              .1      .45     0.
GRID     93              .1      .5      0.
GRID     94              .1      .55     0.
GRID*    95                              .0999999        .6
*        0.
GRID*    96                              .0999999        .65
*        0.
GRID*    97                              .0999999        .7
*        0.
GRID*    98                              .0999999        .75
*        0.
GRID*    99                              .0999999        .8
*        0.
GRID*    100                             .0999999        .85
*        0.
GRID*    101                             .0999999        .9
*        0.
GRID*    102                             .0999999        .95
*        0.
GRID*    103                             .0999999        1.
*        0.
GRID*    104                             .0999999        1.05
*        0.
GRID*    105                             .0999999        1.1
*        0.
GRID*    106                             .0999999        1.15
*        0.
GRID*    107                             .0999999        1.2
*        0.
GRID*    108                             .0999999        1.25
*        0.
GRID*    109                             .0999999        1.3
*        0.
GRID*    110                             .0999999        1.35
*        0.
GRID*    111                             .0999999        1.4
*        0.
GRID*    112                             .0999999        1.45
*        0.
GRID*    113                             .0999999        1.5
*        0.
GRID*    114                             .0999999        1.55
*        0.
$ ... 18 like lines cut
GRID     124             .15     0.      0.
GRID     125             .15     .05     0.
GRID     126             .15     .1      0.
GRID     127             .15     .15     0.
GRID     128             .15     .2      0.
GRID     129             .15     .25     0.
GRID     130             .15     .3      0.
GRID     131             .15     .35     0.
GRID     132             .15     .4      0.
GRID     133             .15     .45     0.
GRID     134             .15     .5      0.
GRID     135             .15     .55     0.
GRID     136             .15     .6      0.
GRID     137             .15     .65     0.
GRID     138             .15     .7      0.
GRID     139             .15     .75     0.
GRID     140             .15     .8      0.
GRID     141             .15     .85     0.
GRID     142             .15     .9      0.
GRID     143             .15     .95     0.
$ ... 4818 like lines cut
$ Displacement Constraints of Load Set : Fixdis
SPC1     2       1       1
SPC1     2       1       2
SPC1     2       1       3
SPC1     2       1       4
SPC1     2       1       5
SPC1     2       1       6
SPC1     2       1       7
SPC1     2       1       8
SPC1     2       1       9
SPC1     2       1       10
SPC1     2       1       11
SPC1     2       1       12
SPC1     2       1       13
SPC1     2       1       14
SPC1     2       1       15
SPC1     2       1       16
SPC1     2       1       17
SPC1     2       1       18
SPC1     2       1       19
SPC1     2       1       20
$ ... 21 like lines cut
$ Displacement Constraints of Load Set : Fixdis2
SPC1     2       2       4921
$ Nodal Forces of Load Set : fp1
FORCE    2       41      0       100.    0.     -1.      0.