$ -------------------------------------------
$ MATERIAL PROPERTIES   
$ -------------------------------------------
$                                                                                                                          
MAT1,501,1440.E6,,.33,5.37078819
$
$ -------------------------------------------
$ Plate Properties
$ -------------------------------------------
$
$1------2-------3-------4-------5-------6-------7-------8-------9-------
$PSHELL PID     MID1    T       MID2    12I/T**3MID3    TS/T    NSM     
$
$ skin
PSHELL,101,501,0.0250,501,,501
$
$ leading and trailing webs
PSHELL,102,501,0.0833,501,,501,,
$
$ rib
PSHELL,103,501,0.0250,501,,501,,
$
$ center web
PSHELL,105,501,0.0833,501,,501,,4.0