GRID,1,,0.447214,0.223607,0.,,3456
GRID,2,,0.498616,0.249308,0.,,3456
GRID,3,,0.592304,0.296152,0.,,3456
GRID,4,,0.712849,0.356424,0.,,3456
GRID,5,,0.854224,0.427112,0.,,3456
GRID,6,,1.012517,0.506258,0.,,3456
GRID,7,,1.184711,0.592356,0.,,3456
GRID,8,,1.368258,0.684129,0.,,3456
GRID,9,,1.560885,0.780442,0.,,3456
GRID,10,,1.760493,0.880246,0.,,3456
GRID,11,,1.965109,0.982555,0.,,3456
GRID,12,,2.172853,1.086427,0.,,3456
GRID,13,,2.381920,1.190960,0.,,3456
GRID,14,,2.590571,1.295286,0.,,3456
GRID,15,,2.797135,1.398567,0.,,3456
GRID,16,,3.000000,1.500000,0.,,3456
GRID,17,,0.419769,0.271650,0.,,3456
GRID,18,,0.465684,0.296384,0.,,3456
GRID,19,,0.549369,0.341464,0.,,3456
GRID,20,,0.657043,0.399468,0.,,3456
$ ... 940 like lines cut
CQUAD4,1,101,1,2,18,17
CQUAD4,2,101,2,3,19,18
CQUAD4,3,101,3,4,20,19
CQUAD4,4,101,4,5,21,20
CQUAD4,5,101,5,6,22,21
CQUAD4,6,101,6,7,23,22
CQUAD4,7,101,7,8,24,23
CQUAD4,8,101,8,9,25,24
CQUAD4,9,101,9,10,26,25
CQUAD4,10,101,10,11,27,26
CQUAD4,11,101,11,12,28,27
CQUAD4,12,101,12,13,29,28
CQUAD4,13,101,13,14,30,29
CQUAD4,14,101,14,15,31,30
CQUAD4,15,101,15,16,32,31
CQUAD4,16,101,17,18,34,33
CQUAD4,17,101,18,19,35,34
CQUAD4,18,101,19,20,36,35
CQUAD4,19,101,20,21,37,36
CQUAD4,20,101,21,22,38,37
$ ... 880 like lines cut
PSHELL,101,501,0.0833
MAT1,501,1440000000.0,,0.33,5.370788
SPC1,1,12,336
SPC1,1,12,352
SPC1,1,12,368
SPC1,1,12,384
SPC1,1,12,400
SPC1,1,12,416
SPC1,1,12,432
SPC1,1,12,448
SPC1,1,12,464
SPC1,1,12,480
SPC1,1,12,496
FORCE,1,832,,1.0E6,1.0,0,0
FORCE,1,848,,1.0E6,1.0,0,0
FORCE,1,864,,1.0E6,1.0,0,0
FORCE,1,880,,1.0E6,1.0,0,0
FORCE,1,896,,1.0E6,1.0,0,0
FORCE,1,912,,1.0E6,1.0,0,0
FORCE,1,928,,1.0E6,1.0,0,0
FORCE,1,944,,1.0E6,1.0,0,0
FORCE,1,960,,1.0E6,1.0,0,0
FORCE,1,16,,0.5E6,1.0,0,0
FORCE,1,816,,0.5E6,1.0,0,0
