SOL SESTATIC
CEND
  TITLE = Simcenter Nastran Static Analysis Set
  ECHO = NONE
  DISPLACEMENT(PLOT) = ALL
  SPCFORCES(PLOT) = ALL
  FORCE(PLOT,CORNER) = ALL
  STRESS(PLOT,CORNER) = ALL
  STRAIN(PLOT,FIBER,CORNER) = ALL
  SPC = 1
SUBCASE 1
  SUBTITLE = NASTRAN 1
  LOAD = 1
SUBCASE 2
  SUBTITLE = NASTRAN 2
  LOAD = 2
BEGIN BULK
$ ***************************************************************************
$   Written by : Femap
$   Version    : 2020.2.0
$   Translator : Simcenter Nastran
$   From Model : 
$   Date       : Mon Jun  7 06:52:05 2021
$   Output To  : C:\Users\aricciar\AppData\Local\Temp\
$ ***************************************************************************
$
MDLPRM,HDF5,0
PARAM,POST,-1
PARAM,GRDPNT,0
CORD2C         1       0      0.      0.      0.      0.      0.      1.+FEMAPC1
+FEMAPC1      1.      0.      1.        
CORD2S         2       0      0.      0.      0.      0.      0.      1.+FEMAPC2
+FEMAPC2      1.      0.      1.        
$ Femap Load Set 1 : NASTRAN 1
FORCE          1       1       0      1.   5000.   5000.  -5000.
$ Femap Load Set 2 : NASTRAN 2
FORCE          2       1       0      1.      0.      0.  -5000.
FORCE          2       2       0      1.      0.      0.  -5000.
FORCE          2       3       0      1.      0.      0.  -5000.
FORCE          2       4       0      1.      0.      0.  -5000.
$ Femap Constraint Set 1 : NASTRAN SPC 1
SPC1           1     456       1
SPC1           1     456       2
SPC1           1     456       3
SPC1           1     456       4
SPC1           1     456       5
SPC1           1     456       6
SPC1           1     456       7
SPC1           1     456       8
SPC1           1     456       9
SPC1           1     456      10
SPC1           1     456      11
SPC1           1     456      12
SPC1           1     456      13
SPC1           1     456      14
SPC1           1     456      15
SPC1           1     456      16
SPC1           1  123456      17
SPC1           1  123456      18
SPC1           1  123456      19
SPC1           1  123456      20
$ Femap Property 1 : ROD Property
PROD           1     101      .5    999.      0.      0.
$ Femap Property 2 : ROD Property
PROD           2     101      .5    999.      0.      0.
$ Femap Property 3 : ROD Property
PROD           3     101      .5    999.      0.      0.
$ Femap Property 4 : ROD Property
PROD           4     101      .5    999.      0.      0.
$ Femap Property 5 : ROD Property
PROD           5     101      .5    999.      0.      0.
$ Femap Property 6 : ROD Property
PROD           6     101      .5    999.      0.      0.
$ Femap Property 7 : ROD Property
PROD           7     101      .5    999.      0.      0.
$ Femap Property 8 : ROD Property
PROD           8     101      .5    999.      0.      0.
$ Femap Property 9 : ROD Property
PROD           9     101      .5    999.      0.      0.
$ Femap Property 10 : ROD Property
PROD          10     101      .5    999.      0.      0.
$ Femap Property 11 : ROD Property
PROD          11     101      .5    999.      0.      0.
$ Femap Property 12 : ROD Property
PROD          12     101      .5    999.      0.      0.
$ Femap Property 13 : ROD Property
PROD          13     101      .5    999.      0.      0.
$ Femap Property 14 : ROD Property
PROD          14     101      .5    999.      0.      0.
$ Femap Property 15 : ROD Property
PROD          15     101      .5    999.      0.      0.
$ Femap Property 16 : ROD Property
PROD          16     101      .5    999.      0.      0.
$ Femap Material 101 : ISOTROPIC Material
MAT1         101    1.+73759398.     .33  2.59-4      0.      0.        
GRID           1       0      0.      0.    240.       0
GRID           2       0    120.      0.    240.       0
GRID           3       0    120.    120.    240.       0
GRID           4       0      0.    120.    240.       0
GRID           5       0      0.      0.    180.       0
GRID           6       0    120.      0.    180.       0
GRID           7       0    120.    120.    180.       0
GRID           8       0      0.    120.    180.       0
GRID           9       0      0.      0.    120.       0
GRID          10       0    120.      0.    120.       0
GRID          11       0    120.    120.    120.       0
GRID          12       0      0.    120.    120.       0
GRID          13       0      0.      0.     60.       0
GRID          14       0    120.      0.     60.       0
GRID          15       0    120.    120.     60.       0
GRID          16       0      0.    120.     60.       0
GRID          17       0      0.      0.      0.       0
GRID          18       0    120.      0.      0.       0
GRID          19       0    120.    120.      0.       0
GRID          20       0      0.    120.      0.       0
CROD           1       1       1       5
CROD           2       1       2       6
CROD           3       1       3       7
CROD           4       1       4       8
CROD           5       2       5       2
CROD           6       2       1       6
CROD           7       2       6       3
CROD           8       2       2       7
CROD           9       2       7       4
CROD          10       2       3       8
CROD          11       2       8       1
CROD          12       2       4       5
CROD          13       3       1       2
CROD          14       3       2       3
CROD          15       3       3       4
CROD          16       3       4       1
CROD          17       4       1       3
CROD          18       4       2       4
CROD          19       5       5       9
CROD          20       5       6      10
$ ... 52 like lines cut
ENDDATA 84ddb7c8
