EIGRL   1                       10
GRDSET                                                  456
$
$ **********************************************************
$   F O R W A R D   W I N G
$ **********************************************************
$ -------------------------------------------
$ MATERIAL PROPERTIES   
$ -------------------------------------------
$                                                                                                                          
MAT1,501,1440.E6,,.33,5.37078819
$
$ -------------------------------------------
$ Plate Properties
$ -------------------------------------------
$
$1------2-------3-------4-------5-------6-------7-------8-------9-------
$PSHELL PID     MID1    T       MID2    12I/T**3MID3    TS/T    NSM     
$
$ skin
PSHELL,101,501,0.0250,501,,501
$
$ leading and trailing webs
PSHELL,102,501,0.0833,501,,501,,
$
$ rib
PSHELL,103,501,0.0250,501,,501,,
$
$ center web
PSHELL,105,501,0.0833,501,,501,,4.0
$
$ -------------------------------------------
$ Mesh
$ -------------------------------------------
$
$1------2-------3-------4-------5-------6-------7-------8-------9-------
$CORD2R CID     RID     A1      A2      A3      B1      B2      B3      
$       C1      C2      C3                                              
CORD2R,18,,0.000000,0.000000,0.000000,0.000000,-0.121869,1.000000,
,0.809017,-0.587785,0.121869,,,,,,
$1------2-------3-------4-------5-------6-------7-------8-------9-------
$GRID   ID      CP      X1      X2      X3      CD      PS      SEID    
GRID,1,18,0.000000,0.000000,0.000000,0,,,
GRID,1001,18,-4.635255,0.000000,0.000000,0,,,
GRID,2001,18,-4.635255,0.000000,0.347644,0,,,
GRID,3001,18,0.000000,0.000000,0.347644,0,,,
GRID,4001,18,4.635255,0.000000,0.347644,0,,,
GRID,5001,18,4.635255,0.000000,0.000000,0,,,
GRID,12001,18,-4.635255,0.000000,-0.347644,0,,,
GRID,13001,18,0.000000,0.000000,-0.347644,0,,,
GRID,14001,18,4.635255,0.000000,-0.347644,0,,,
GRID,2,18,0.000000,4.879216,0.000000,0,,,
GRID,1002,18,-4.635255,4.879216,0.000000,0,,,
GRID,2002,18,-4.635255,4.879216,0.347644,0,,,
GRID,3002,18,0.000000,4.879216,0.347644,0,,,
GRID,4002,18,4.635255,4.879216,0.347644,0,,,
GRID,5002,18,4.635255,4.879216,0.000000,0,,,
GRID,12002,18,-4.635255,4.879216,-0.347644,0,,,
GRID,13002,18,0.000000,4.879216,-0.347644,0,,,
GRID,14002,18,4.635255,4.879216,-0.347644,0,,,
GRID,3,18,0.000000,9.758432,0.000000,0,,,
GRID,1003,18,-4.635255,9.758432,0.000000,0,,,
$ ... 160 like lines cut
$1------2-------3-------4-------5-------6-------7-------8-------9-------
$CQUAD4 EID     PID     G1      G2      G3      G4      THETA   ZOFFS   
CQUAD4,1,101,4001,4002,3002,3001,,,
CQUAD4,2,101,3001,3002,2002,2001,,,
CQUAD4,3,101,14001,14002,13002,13001,,,
CQUAD4,4,101,13001,13002,12002,12001,,,
CQUAD4,5,102,12001,12002,2002,2001,,,
CQUAD4,6,102,14001,14002,4002,4001,,,
CQUAD4,7,105,13001,13002,3002,3001,,,
CQUAD4,8,101,4002,4003,3003,3002,,,
CQUAD4,9,101,3002,3003,2003,2002,,,
CQUAD4,10,101,14002,14003,13003,13002,,,
CQUAD4,11,101,13002,13003,12003,12002,,,
CQUAD4,12,102,12002,12003,2003,2002,,,
CQUAD4,13,102,14002,14003,4003,4002,,,
CQUAD4,14,105,13002,13003,3003,3002,,,
CQUAD4,15,103,12002,13002,3002,2002,,,
CQUAD4,16,103,13002,14002,4002,3002,,,
CQUAD4,17,101,4003,4004,3004,3003,,,
CQUAD4,18,101,3003,3004,2004,2003,,,
CQUAD4,19,101,14003,14004,13004,13003,,,
CQUAD4,20,101,13003,13004,12004,12003,,,
$ ... 151 like lines cut
$1------2-------3-------4-------5-------6-------7-------8-------9-------
$RBE2   EID     GN      CM      GM1     GM2     GM3     GM4     GM5     
RBE2,1000,1,123,1001,5001,,,,
RBE2,1001,2,123,1002,5002,,,,
RBE2,1002,3,123,1003,5003,,,,
RBE2,1003,4,123,1004,5004,,,,
RBE2,1004,5,123,1005,5005,,,,
RBE2,1005,6,123,1006,5006,,,,
RBE2,1006,7,123,1007,5007,,,,
RBE2,1007,8,123,1008,5008,,,,
RBE2,1008,9,123,1009,5009,,,,
RBE2,1009,10,123,1010,5010,,,,
RBE2,1010,11,123,1011,5011,,,,
RBE2,1011,12,123,1012,5012,,,,
RBE2,1012,13,123,1013,5013,,,,
RBE2,1013,14,123,1014,5014,,,,
RBE2,1014,15,123,1015,5015,,,,
RBE2,1015,16,123,1016,5016,,,,
RBE2,1016,17,123,1017,5017,,,,
RBE2,1017,18,123,1018,5018,,,,
RBE2,1018,19,123,1019,5019,,,,
RBE2,1019,20,123,1020,5020,,,,
$1------2-------3-------4-------5-------6-------7-------8-------9-------
$RBE3   EID             REFGRID REFC    WT1     C1      G1      G2      
$       G3      G4      G5      G6      G7      G8      G9      G10     
RBE3,2000,,1,123,1.000000,123,2001,3001,
,4001,12001,13001,14001,,,,,
RBE3,2001,,2,123,1.000000,123,2002,3002,
,4002,12002,13002,14002,,,,,
RBE3,2002,,3,123,1.000000,123,2003,3003,
,4003,12003,13003,14003,,,,,
RBE3,2003,,4,123,1.000000,123,2004,3004,
,4004,12004,13004,14004,,,,,
RBE3,2004,,5,123,1.000000,123,2005,3005,
,4005,12005,13005,14005,,,,,
RBE3,2005,,6,123,1.000000,123,2006,3006,
,4006,12006,13006,14006,,,,,
RBE3,2006,,7,123,1.000000,123,2007,3007,
,4007,12007,13007,14007,,,,,
RBE3,2007,,8,123,1.000000,123,2008,3008,
,4008,12008,13008,14008,,,,,
RBE3,2008,,9,123,1.000000,123,2009,3009,
,4009,12009,13009,14009,,,,,
RBE3,2009,,10,123,1.000000,123,2010,3010,
,4010,12010,13010,14010,,,,,
RBE3,2010,,11,123,1.000000,123,2011,3011,
,4011,12011,13011,14011,,,,,
RBE3,2011,,12,123,1.000000,123,2012,3012,
,4012,12012,13012,14012,,,,,
RBE3,2012,,13,123,1.000000,123,2013,3013,
,4013,12013,13013,14013,,,,,
RBE3,2013,,14,123,1.000000,123,2014,3014,
,4014,12014,13014,14014,,,,,
RBE3,2014,,15,123,1.000000,123,2015,3015,
,4015,12015,13015,14015,,,,,
RBE3,2015,,16,123,1.000000,123,2016,3016,
,4016,12016,13016,14016,,,,,
RBE3,2016,,17,123,1.000000,123,2017,3017,
,4017,12017,13017,14017,,,,,
RBE3,2017,,18,123,1.000000,123,2018,3018,
,4018,12018,13018,14018,,,,,
RBE3,2018,,19,123,1.000000,123,2019,3019,
,4019,12019,13019,14019,,,,,
RBE3,2019,,20,123,1.000000,123,2020,3020,
,4020,12020,13020,14020,,,,,
$1------2-------3-------4-------5-------6-------7-------8-------9-------
$CONM2  EID     G       CID     M       X1      X1      X3              
CONM2,3000,1001,,10.060968,,,,,
CONM2,3001,5001,,10.060968,,,,,
CONM2,3002,1002,,10.060968,,,,,
CONM2,3003,5002,,10.060968,,,,,
CONM2,3004,1003,,10.060968,,,,,
CONM2,3005,5003,,10.060968,,,,,
CONM2,3006,1004,,10.060968,,,,,
CONM2,3007,5004,,10.060968,,,,,
CONM2,3008,1005,,10.060968,,,,,
CONM2,3009,5005,,10.060968,,,,,
CONM2,3010,1006,,10.060968,,,,,
CONM2,3011,5006,,10.060968,,,,,
CONM2,3012,1007,,10.060968,,,,,
CONM2,3013,5007,,10.060968,,,,,
CONM2,3014,1008,,10.060968,,,,,
CONM2,3015,5008,,10.060968,,,,,
CONM2,3016,1009,,10.060968,,,,,
CONM2,3017,5009,,10.060968,,,,,
CONM2,3018,1010,,10.060968,,,,,
CONM2,3019,5010,,10.060968,,,,,
$ ... 20 like lines cut
$1------2-------3-------4-------5-------6-------7-------8-------9-------
$SPC1   SID     C       G1      G2      G3      G4      G5      G6      
SPC1,1,123,2001,,,,,,
SPC1,1,123,3001,,,,,,
SPC1,1,123,4001,,,,,,
SPC1,1,123,12001,,,,,,
SPC1,1,123,13001,,,,,,
SPC1,1,123,14001,,,,,,
$ **********************************************************
$   A F T   W I N G
$ **********************************************************
$ -------------------------------------------
$ MATERIAL PROPERTIES   
$ -------------------------------------------
$                                                                                                                          
$ MAT1,501,1440.E6,,.33,5.37078819
$
$ -------------------------------------------
$ Plate Properties
$ -------------------------------------------
$
$1------2-------3-------4-------5-------6-------7-------8-------9-------
$PSHELL PID     MID1    T       MID2    12I/T**3MID3    TS/T    NSM     
$
$ skin
PSHELL,201,501,0.0250,501,,501
$
$ leading and trailing webs
PSHELL,202,501,0.0250,501,,501,,
$
$ rib
PSHELL,203,501,0.0250,501,,501,,
$
$ center web
PSHELL,205,501,0.0250,501,,501,,1.33
$1------2-------3-------4-------5-------6-------7-------8-------9-------
$CORD2R CID     RID     A1      A2      A3      B1      B2      B3      
$       C1      C2      C3                                              
CORD2R,19,,79.587240,0.000000,23.348258,79.587240,0.241922,24.157275,
,80.300274,0.475528,23.206060,,,,,,
$
$ -------------------------------------------
$ Mesh
$ -------------------------------------------
$
$1------2-------3-------4-------5-------6-------7-------8-------9-------
$GRID   ID      CP      X1      X2      X3      CD      PS      SEID    
GRID,21,19,0.000000,0.000000,0.000000,0,,,
GRID,1021,19,-1.175754,0.000000,0.000000,0,,,
GRID,2021,19,-1.175754,0.000000,0.176363,0,,,
GRID,3021,19,0.000000,0.000000,0.176363,0,,,
GRID,4021,19,1.175754,0.000000,0.176363,0,,,
GRID,5021,19,1.175754,0.000000,0.000000,0,,,
GRID,12021,19,-1.175754,0.000000,-0.176363,0,,,
GRID,13021,19,0.000000,0.000000,-0.176363,0,,,
GRID,14021,19,1.175754,0.000000,-0.176363,0,,,
GRID,22,19,0.000000,2.432595,0.000000,0,,,
GRID,1022,19,-1.175754,2.432595,0.000000,0,,,
GRID,2022,19,-1.175754,2.432595,0.176363,0,,,
GRID,3022,19,0.000000,2.432595,0.176363,0,,,
GRID,4022,19,1.175754,2.432595,0.176363,0,,,
GRID,5022,19,1.175754,2.432595,0.000000,0,,,
GRID,12022,19,-1.175754,2.432595,-0.176363,0,,,
GRID,13022,19,0.000000,2.432595,-0.176363,0,,,
GRID,14022,19,1.175754,2.432595,-0.176363,0,,,
GRID,23,19,0.000000,4.865190,0.000000,0,,,
GRID,1023,19,-1.175754,4.865190,0.000000,0,,,
$ ... 250 like lines cut
$1------2-------3-------4-------5-------6-------7-------8-------9-------
$CQUAD4 EID     PID     G1      G2      G3      G4      THETA   ZOFFS   
CQUAD4,4000,201,4021,4022,3022,3021,,,
CQUAD4,4001,201,3021,3022,2022,2021,,,
CQUAD4,4002,201,14021,14022,13022,13021,,,
CQUAD4,4003,201,13021,13022,12022,12021,,,
CQUAD4,4004,202,12021,12022,2022,2021,,,
CQUAD4,4005,202,14021,14022,4022,4021,,,
CQUAD4,4006,205,13021,13022,3022,3021,,,
CQUAD4,4007,201,4022,4023,3023,3022,,,
CQUAD4,4008,201,3022,3023,2023,2022,,,
CQUAD4,4009,201,14022,14023,13023,13022,,,
CQUAD4,4010,201,13022,13023,12023,12022,,,
CQUAD4,4011,202,12022,12023,2023,2022,,,
CQUAD4,4012,202,14022,14023,4023,4022,,,
CQUAD4,4013,205,13022,13023,3023,3022,,,
CQUAD4,4014,203,12022,13022,3022,2022,,,
CQUAD4,4015,203,13022,14022,4022,3022,,,
CQUAD4,4016,201,4023,4024,3024,3023,,,
CQUAD4,4017,201,3023,3024,2024,2023,,,
CQUAD4,4018,201,14023,14024,13024,13023,,,
CQUAD4,4019,201,13023,13024,12024,12023,,,
$ ... 241 like lines cut
$1------2-------3-------4-------5-------6-------7-------8-------9-------
$RBE2   EID     GN      CM      GM1     GM2     GM3     GM4     GM5     
RBE2,5000,21,123,1021,5021,,,,
RBE2,5001,22,123,1022,5022,,,,
RBE2,5002,23,123,1023,5023,,,,
RBE2,5003,24,123,1024,5024,,,,
RBE2,5004,25,123,1025,5025,,,,
RBE2,5005,26,123,1026,5026,,,,
RBE2,5006,27,123,1027,5027,,,,
RBE2,5007,28,123,1028,5028,,,,
RBE2,5008,29,123,1029,5029,,,,
RBE2,5009,30,123,1030,5030,,,,
RBE2,5010,31,123,1031,5031,,,,
RBE2,5011,32,123,1032,5032,,,,
RBE2,5012,33,123,1033,5033,,,,
RBE2,5013,34,123,1034,5034,,,,
RBE2,5014,35,123,1035,5035,,,,
RBE2,5015,36,123,1036,5036,,,,
RBE2,5016,37,123,1037,5037,,,,
RBE2,5017,38,123,1038,5038,,,,
RBE2,5018,39,123,1039,5039,,,,
RBE2,5019,40,123,1040,5040,,,,
$ ... 10 like lines cut
$ RBE2 EID GN CM GM1 GM2 GM3 GM4 GM5
$ GM6 GM7 GM8
RBE2,10000,3015,123,2015,4015,12015,13015,14015
,3050,2050,4050,12050,13050,14050
$1------2-------3-------4-------5-------6-------7-------8-------9-------
$RBE3   EID             REFGRID REFC    WT1     C1      G1      G2      
$       G3      G4      G5      G6      G7      G8      G9      G10     
RBE3,6000,,21,123,1.000000,123,2021,3021,
,4021,12021,13021,14021,,,,,
RBE3,6001,,22,123,1.000000,123,2022,3022,
,4022,12022,13022,14022,,,,,
RBE3,6002,,23,123,1.000000,123,2023,3023,
,4023,12023,13023,14023,,,,,
RBE3,6003,,24,123,1.000000,123,2024,3024,
,4024,12024,13024,14024,,,,,
RBE3,6004,,25,123,1.000000,123,2025,3025,
,4025,12025,13025,14025,,,,,
RBE3,6005,,26,123,1.000000,123,2026,3026,
,4026,12026,13026,14026,,,,,
RBE3,6006,,27,123,1.000000,123,2027,3027,
,4027,12027,13027,14027,,,,,
RBE3,6007,,28,123,1.000000,123,2028,3028,
,4028,12028,13028,14028,,,,,
RBE3,6008,,29,123,1.000000,123,2029,3029,
,4029,12029,13029,14029,,,,,
RBE3,6009,,30,123,1.000000,123,2030,3030,
,4030,12030,13030,14030,,,,,
RBE3,6010,,31,123,1.000000,123,2031,3031,
,4031,12031,13031,14031,,,,,
RBE3,6011,,32,123,1.000000,123,2032,3032,
,4032,12032,13032,14032,,,,,
RBE3,6012,,33,123,1.000000,123,2033,3033,
,4033,12033,13033,14033,,,,,
RBE3,6013,,34,123,1.000000,123,2034,3034,
,4034,12034,13034,14034,,,,,
RBE3,6014,,35,123,1.000000,123,2035,3035,
,4035,12035,13035,14035,,,,,
RBE3,6015,,36,123,1.000000,123,2036,3036,
,4036,12036,13036,14036,,,,,
RBE3,6016,,37,123,1.000000,123,2037,3037,
,4037,12037,13037,14037,,,,,
RBE3,6017,,38,123,1.000000,123,2038,3038,
,4038,12038,13038,14038,,,,,
RBE3,6018,,39,123,1.000000,123,2039,3039,
,4039,12039,13039,14039,,,,,
RBE3,6019,,40,123,1.000000,123,2040,3040,
,4040,12040,13040,14040,,,,,
$ ... 20 like lines cut
$1------2-------3-------4-------5-------6-------7-------8-------9-------
$CONM2  EID     G       CID     M       X1      X1      X3              
CONM2,7000,1021,,0.830505,,,,,
CONM2,7001,5021,,0.830505,,,,,
CONM2,7002,1022,,0.830505,,,,,
CONM2,7003,5022,,0.830505,,,,,
CONM2,7004,1023,,0.830505,,,,,
CONM2,7005,5023,,0.830505,,,,,
CONM2,7006,1024,,0.830505,,,,,
CONM2,7007,5024,,0.830505,,,,,
CONM2,7008,1025,,0.830505,,,,,
CONM2,7009,5025,,0.830505,,,,,
CONM2,7010,1026,,0.830505,,,,,
CONM2,7011,5026,,0.830505,,,,,
CONM2,7012,1027,,0.830505,,,,,
CONM2,7013,5027,,0.830505,,,,,
CONM2,7014,1028,,0.830505,,,,,
CONM2,7015,5028,,0.830505,,,,,
CONM2,7016,1029,,0.830505,,,,,
CONM2,7017,5029,,0.830505,,,,,
CONM2,7018,1030,,0.830505,,,,,
CONM2,7019,5030,,0.830505,,,,,
$ ... 40 like lines cut
$1------2-------3-------4-------5-------6-------7-------8-------9-------
$SPC1   SID     C       G1      G2      G3      G4      G5      G6      
SPC1,1,123,2021,,,,,,
SPC1,1,123,3021,,,,,,
SPC1,1,123,4021,,,,,,
SPC1,1,123,12021,,,,,,
SPC1,1,123,13021,,,,,,
SPC1,1,123,14021,,,,,,
FORCE,88,1,,1.000000,-46.870384,-174.575167,1478.640158
FORCE,88,2,,1.000000,-44.309304,-334.970111,2416.658325
FORCE,88,3,,1.000000,-76.523505,-353.713667,2264.718485
FORCE,88,4,,1.000000,-86.014411,-401.961260,2327.074678
FORCE,88,5,,1.000000,-91.815692,-438.411157,2365.872628
FORCE,88,6,,1.000000,-91.882388,-470.641267,2420.338500
FORCE,88,7,,1.000000,-88.123557,-497.041463,2483.151798
FORCE,88,8,,1.000000,-81.889283,-518.145521,2557.196893
FORCE,88,9,,1.000000,-74.532651,-534.200264,2642.937478
FORCE,88,10,,1.000000,-66.279638,-545.956606,2738.900235
FORCE,88,11,,1.000000,-55.910834,-554.354426,2838.870433
FORCE,88,12,,1.000000,-34.601881,-561.083023,2910.463666
FORCE,88,13,,1.000000,-5.475016,-559.660960,2915.804830
FORCE,88,14,,1.000000,-12.581266,-541.892742,2953.422572
FORCE,88,15,,1.000000,-0.929230,-545.337972,2986.542846
FORCE,88,16,,1.000000,-1.342430,-536.439478,2948.040707
FORCE,88,17,,1.000000,6.413668,-523.866015,2863.696780
FORCE,88,18,,1.000000,2.733655,-483.453500,2681.492209
FORCE,88,19,,1.000000,-12.323579,-316.900387,1825.442453
FORCE,88,20,,1.000000,-23.054895,-53.271685,385.541201
$ ... 130 like lines cut
GRAV,88,0,80.500000,0.162368,0.000000,-0.986730

