CBEAM,1,101,1,2,0.000000,1.000000,0.000000
CBEAM,2,102,2,3,0.000000,1.000000,0.000000
CBEAM,3,103,3,4,0.000000,1.000000,0.000000
CBEAM,4,104,4,5,0.000000,1.000000,0.000000
CBEAM,5,105,5,6,0.000000,1.000000,0.000000
FORCE,1,6,,100000000.000000,0.000000,0.000000,-1.000000
GRDSET,,,,,,,246
GRID,1,0,0.000000,0.000000,0.000000,0
GRID,2,0,1.000000,0.000000,0.000000,0
GRID,3,0,2.000000,0.000000,0.000000,0
GRID,4,0,3.000000,0.000000,0.000000,0
GRID,5,0,4.000000,0.000000,0.000000,0
GRID,6,0,5.000000,0.000000,0.000000,0
MAT1,501,1440000000.000000,541353383.458647,0.330000,5.370788
PBEAM,101,501,15.000000,2500.000000,0.418916,0.000000,25000.000000,0.000000
,1.000000e-01,1.000000e-01,-1.000000e-01,1.000000e-01,-1.000000e-01,-1.000000e-01,1.000000e-01,-1.000000e-01
,0,0
PBEAM,102,501,15.000000,2500.000000,0.287930,0.000000,25000.000000,0.000000
,1.000000e-01,1.000000e-01,-1.000000e-01,1.000000e-01,-1.000000e-01,-1.000000e-01,1.000000e-01,-1.000000e-01
,0,0
PBEAM,103,501,15.000000,2500.000000,0.174661,0.000000,25000.000000,0.000000
,1.000000e-01,1.000000e-01,-1.000000e-01,1.000000e-01,-1.000000e-01,-1.000000e-01,1.000000e-01,-1.000000e-01
,0,0
PBEAM,104,501,15.000000,2500.000000,0.082596,0.000000,25000.000000,0.000000
,1.000000e-01,1.000000e-01,-1.000000e-01,1.000000e-01,-1.000000e-01,-1.000000e-01,1.000000e-01,-1.000000e-01
,0,0
PBEAM,105,501,15.000000,2500.000000,0.019192,0.000000,25000.000000,0.000000
,1.000000e-01,1.000000e-01,-1.000000e-01,1.000000e-01,-1.000000e-01,-1.000000e-01,1.000000e-01,-1.000000e-01
,0,0
SPC1,1,123456,1
