SOL SEMODES
CEND
  TITLE = CANTILEVER BEAM STATIC REDUCTION
  SUBTITLE = STATIC REDUCTION
  METHOD = 1
  SPC = 1
  LINE=99999999
  displacement=all
  spcforces=all
BEGIN BULK
MDLPRM,HDF5,0
PARAM,USETPRT,12
PARAM,USETSEL,-1
$
GRDSET                                                      1345      
EIGRL          1                      10       0                    MASS
$
PBAR           1       1     0.1    0.01    0.01   0.001      0.
MAT1           1  2.9E+7  1.1E+7    0.327.357E-4   6.E-6     70. 
GRID           6       0      5.      0.      0.       0        
GRID           7       0      6.      0.      0.       0        
GRID           8       0      7.      0.      0.       0        
GRID           9       0      8.      0.      0.       0        
GRID          10       0      9.      0.      0.       0        
GRID          11       0     10.      0.      0.       0            
CBAR           6       1       6       7      0.      1.      0.
CBAR           7       1       7       8      0.      1.      0.
CBAR           8       1       8       9      0.      1.      0.
CBAR           9       1       9      10      0.      1.      0.
CBAR          10       1      10      11      0.      1.      0.
$
$
SPC            1       1  123456      0.
GRID           1       0      0.      0.      0.       0        
GRID           2       0      1.      0.      0.       0        
GRID           3       0      2.      0.      0.       0        
GRID           4       0      3.      0.      0.       0        
GRID           5       0      4.      0.      0.       0        
CBAR           1       1       1       2      0.      1.      0.
CBAR           2       1       2       3      0.      1.      0.
CBAR           3       1       3       4      0.      1.      0.
CBAR           4       1       4       5      0.      1.      0.
CBAR           5       1       5       6      0.      1.      0.
$
$
ENDDATA