$
$ GRID Points ...........................................
$
GRID,1,,720.0,0.0,0.0
GRID,2,,720.0,0.0,-360.0
GRID,3,,360.0,0.0,0.0
GRID,4,,360.0,0.0,-360.0
GRID,5,,0.0,0.0,0.0
GRID,6,,0.0,0.0,-360.0
$
$ CROD Elements  ........................................
$
CROD,1,101,5,3
CROD,2,201,3,1
CROD,3,301,6,4
CROD,4,401,4,2
CROD,5,501,3,4
CROD,6,601,1,2
CROD,7,701,5,4
CROD,8,801,6,3
CROD,9,901,3,2
CROD,10,1001,4,1
$
$1------2-------3-------4-------5-------6-------7-------8-------9-------        
PROD,101,501,5.0,25000.,0.0
PROD,201,501,5.0,25000.,0.0
PROD,301,501,5.0,25000.,0.0
PROD,401,501,5.0,25000.,0.0
PROD,501,501,5.0,25000.,0.0
PROD,601,501,5.0,25000.,0.0
PROD,701,501,5.0,25000.,0.0
PROD,801,501,5.0,25000.,0.0
PROD,901,501,5.0,25000.,0.0
PROD,1001,501,5.0,25000.,0.0
$
$
FORCE,88,2,,100000.,0.,0.,-1.
FORCE,88,4,,100000.,0.,0.,-1.
$
SPC1,1,123456,5
SPC1,1,123456,6
SPC1,1,2456,1
SPC1,1,2456,2
SPC1,1,2456,3
SPC1,1,2456,4
$
$
$$ Material
MAT1,501,1.E7,,.33,0.1
$
$
$
$
$
$
$
$
$