SOL 101
CEND
TITLE = OptimizeWing
DISPLACEMENT(PLOT)=ALL
SET 1 = 107 THRU 199,201 THRU 299,301 THRU 399,401 THRU 499,501 THRU 599,
601 THRU 699,701 THRU 799,801 THRU 899,901 THRU 999,1001 THRU 4147
STRESS(PLOT)=1
SPC = 1
LOAD = 1
BEGIN BULK
PSHELL,101,1,0.500000,1,1.000000,1,0.833333,0.000000
PSHELL,102,1,0.200000,1,1.000000,1,0.833333,0.000000
PSHELL,103,1,0.200000,1,1.000000,1,0.833333,0.000000
PSHELL,104,1,0.200000,1,1.000000,1,0.833333,0.000000
PSHELL,105,1,0.200000,1,1.000000,1,0.833333,0.000000
PSHELL,106,1,0.200000,1,1.000000,1,0.833333,0.000000
PSHELL,107,1,0.200000,1,1.000000,1,0.833333,0.000000
PSHELL,108,1,0.200000,1,1.000000,1,0.833333,0.000000
PSHELL,109,1,0.200000,1,1.000000,1,0.833333,0.000000
PSHELL,110,1,0.500000,1,1.000000,1,0.833333,0.000000
PSHELL,201,1,1.693150,1,1.000000,1,0.833333,0.000000
PSHELL,202,1,0.942584,1,1.000000,1,0.833333,0.000000
PSHELL,203,1,0.665500,1,1.000000,1,0.833333,0.000000
PSHELL,204,1,0.497494,1,1.000000,1,0.833333,0.000000
PSHELL,205,1,0.346305,1,1.000000,1,0.833333,0.000000
PSHELL,206,1,0.218803,1,1.000000,1,0.833333,0.000000
PSHELL,207,1,0.200000,1,1.000000,1,0.833333,0.000000
PSHELL,208,1,0.200000,1,1.000000,1,0.833333,0.000000
PSHELL,209,1,0.200000,1,1.000000,1,0.833333,0.000000
PSHELL,301,1,1.525016,1,1.000000,1,0.833333,0.000000
$ ... 8 like lines cut
PARAM,WTMASS,.00259
SPC1,1,123456,1
SPC1,1,123456,11
SPC1,1,123456,12
SPC1,1,123456,13
SPC1,1,123456,14
SPC1,1,123456,15
SPC1,1,123456,16
SPC1,1,123456,17
SPC1,1,123456,18
SPC1,1,123456,19
SPC1,1,123456,20
SPC1,1,123456,21
SPC1,1,123456,22
SPC1,1,123456,23
SPC1,1,123456,24
SPC1,1,123456,25
SPC1,1,123456,26
SPC1,1,123456,27
SPC1,1,123456,28
SPC1,1,123456,29
$ ... 50 like lines cut
FORCE,1,100,0,1.000000,0.000000,0.000000,21741.630000
FORCE,1,200,0,1.000000,0.000000,0.000000,21470.120000
FORCE,1,300,0,1.000000,0.000000,0.000000,20916.490000
FORCE,1,400,0,1.000000,0.000000,0.000000,20057.260000
FORCE,1,500,0,1.000000,0.000000,0.000000,18850.420000
FORCE,1,600,0,1.000000,0.000000,0.000000,17222.360000
FORCE,1,700,0,1.000000,0.000000,0.000000,15034.820000
FORCE,1,800,0,1.000000,0.000000,0.000000,11975.320000
FORCE,1,900,0,1.000000,0.000000,0.000000,6731.579000
MOMENT,1,100,0,1.000000,564698.200000,594985.900000,0.000000
MOMENT,1,200,0,1.000000,556448.400000,529944.100000,0.000000
MOMENT,1,300,0,1.000000,540792.300000,460215.600000,0.000000
MOMENT,1,400,0,1.000000,517055.200000,387670.300000,0.000000
MOMENT,1,500,0,1.000000,484044.500000,314141.800000,0.000000
MOMENT,1,600,0,1.000000,439663.500000,241520.000000,0.000000
MOMENT,1,700,0,1.000000,379907.100000,171875.400000,0.000000
MOMENT,1,800,0,1.000000,295381.700000,107698.900000,0.000000
MOMENT,1,900,0,1.000000,140705.800000,53656.240000,0.000000
MAT1,1,10300000.000000,3872180.000000,0.330000,0.100024
GRID,1,0,78.000000,0.000000,0.000000,0
GRID,11,0,39.000000,0.000000,7.200000,0
GRID,12,0,43.875000,0.000000,7.200000,0
GRID,13,0,48.750000,0.000000,7.200000,0
GRID,14,0,53.625000,0.000000,7.200000,0
GRID,15,0,58.500000,0.000000,7.200000,0
GRID,16,0,63.375000,0.000000,7.200000,0
GRID,17,0,68.250000,0.000000,7.200000,0
GRID,18,0,73.125000,0.000000,7.200000,0
GRID,19,0,78.000000,0.000000,7.200000,0
GRID,20,0,82.875000,0.000000,7.200000,0
GRID,21,0,87.750000,0.000000,7.200000,0
GRID,22,0,92.625000,0.000000,7.200000,0
GRID,23,0,97.500000,0.000000,7.200000,0
GRID,24,0,102.375000,0.000000,7.200000,0
GRID,25,0,107.250000,0.000000,7.200000,0
GRID,26,0,112.125000,0.000000,7.200000,0
GRID,27,0,117.000000,0.000000,7.200000,0
GRID,28,0,117.000000,0.000000,2.400000,0
GRID,29,0,117.000000,0.000000,-2.400000,0
$ ... 4433 like lines cut
CQUAD4,10,101,11,12,49,48
,0,,,,
CQUAD4,11,101,12,13,50,49
,0,,,,
CQUAD4,12,101,13,14,51,50
,0,,,,
CQUAD4,13,101,14,15,52,51
,0,,,,
CQUAD4,14,101,15,16,53,52
,0,,,,
CQUAD4,15,101,16,17,54,53
,0,,,,
CQUAD4,16,101,17,18,55,54
,0,,,,
CQUAD4,17,101,18,19,56,55
,0,,,,
CQUAD4,18,101,19,20,57,56
,0,,,,
CQUAD4,19,101,20,21,58,57
,0,,,,
CQUAD4,20,101,21,22,59,58
,0,,,,
CQUAD4,21,101,22,23,60,59
,0,,,,
CQUAD4,22,101,23,24,61,60
,0,,,,
CQUAD4,23,101,24,25,62,61
,0,,,,
CQUAD4,24,101,25,26,63,62
,0,,,,
CQUAD4,25,101,26,27,28,63
,0,,,,
CQUAD4,26,101,48,49,64,47
,0,,,,
CQUAD4,27,101,49,50,65,64
,0,,,,
CQUAD4,28,101,50,51,66,65
,0,,,,
CQUAD4,29,101,51,52,67,66
,0,,,,
$ ... 9128 like lines cut
RBE3,4604,,200,123456,1.000000,123,354,355
,356,357,358,359,360,361,362,363
,364,365,366,367,368,369,370,560
,584,609,611,613,615,617,619,621
,623,625,627,629,631,633,635,637
,148,149,150,151,152,153,154,155
,156,157,158,159,160,161,162,163
,164,561,585,610,612,614,616,618
,620,622,624,626,628,630,632,634
,636,638
RBE3,4605,,300,123456,1.000000,123,639,640
,660,661,662,663,664,665,666,667
,668,669,670,671,672,673,674,675
,676,677,679,681,683,685,687,689
,691,693,695,697,699,702,704,706
,641,642,643,644,645,646,647,648
,649,650,651,652,653,654,655,656
,657,658,659,678,680,682,684,686
,688,690,692,694,696,698,701,703
,705,707
RBE3,4606,,400,123456,1.000000,123,708,709
,729,730,731,732,733,734,735,736
,737,738,739,740,741,742,743,744
,745,746,748,750,752,754,756,758
,760,762,764,766,768,770,772,774
,710,711,712,713,714,715,716,717
,718,719,720,721,722,723,724,725
,726,727,728,747,749,751,753,755
,757,759,761,763,765,767,769,771
,773,775
RBE3,4607,,500,123456,1.000000,123,776,777
,797,798,799,801,802,803,804,805
,806,807,808,809,810,811,812,813
,814,815,817,819,821,823,825,827
,829,831,833,835,837,839,841,843
,778,779,780,781,782,783,784,785
,786,787,788,789,790,791,792,793
,794,795,796,816,818,820,822,824
,826,828,830,832,834,836,838,840
,842,844
RBE3,4608,,600,123456,1.000000,123,845,846
,866,867,868,869,870,871,872,873
,874,875,876,877,878,879,880,881
,882,883,885,887,889,891,893,895
,897,899,902,904,906,908,910,912
,847,848,849,850,851,852,853,854
,855,856,857,858,859,860,861,862
,863,864,865,884,886,888,890,892
,894,896,898,901,903,905,907,909
,911,913
RBE3,4609,,700,123456,1.000000,123,914,915
,935,936,937,938,939,940,941,942
,943,944,945,946,947,948,949,950
,951,952,954,956,958,960,962,964
,966,968,970,972,974,976,978,980
,916,917,918,919,920,921,922,923
,924,925,926,927,928,929,930,931
,932,933,934,953,955,957,959,961
,963,965,967,969,971,973,975,977
,979,981
RBE3,4610,,800,123456,1.000000,123,982,983
,1004,1005,1006,1007,1008,1009,1010,1011
,1012,1013,1014,1015,1016,1017,1018,1019
,1020,1021,1023,1025,1027,1029,1031,1033
,1035,1037,1039,1041,1043,1045,1047,1049
,984,985,986,987,988,989,990,991
,992,993,994,995,996,997,998,999
,1001,1002,1003,1022,1024,1026,1028,1030
,1032,1034,1036,1038,1040,1042,1044,1046
,1048,1050
RBE3,4611,,900,123456,1.000000,123,1051,1052
,1072,1073,1074,1075,1076,1077,1078,1079
,1080,1081,1082,1083,1084,1085,1086,1087
,1088,1089,1091,1093,1095,1097,1099,1101
,1103,1105,1107,1109,1111,1113,1115,1117
,1053,1054,1055,1056,1057,1058,1059,1060
,1061,1062,1063,1064,1065,1066,1067,1068
,1069,1070,1071,1090,1092,1094,1096,1098
,1100,1102,1104,1106,1108,1110,1112,1114
,1116,1118
RBE3,4612,,1000,123456,1.000000,123,79,80
,101,102,103,104,105,106,107,108
,109,110,111,112,113,114,115,116
,117,118,120,122,124,126,128,130
,132,134,136,138,140,142,144,146
,81,82,83,84,85,86,87,88
,89,90,91,92,93,94,95,96
,97,98,99,119,121,123,125,127
,129,131,133,135,137,139,141,143
,145,147
ENDDATA
